pcf
* control data
restart estimation
5 1022 5 0 1
1 1 double point 1 0 0
0.1 1.1 0.3 0.01 10
3.0 3.0 1.0e-5     
0.1                
50 0.0015 4 3 0.001 3
1 1 1
* parameter groups
g1 relative 0.05  0.00 always_3 1.0 parabolic
g2 relative 0.05  0.00 always_3 1.0 parabolic
g3 relative 0.05  0.00 always_3 1.0 parabolic
g4 relative 0.05  0.00 always_3 1.0 parabolic
g5 relative 0.05  0.00 always_3 1.0 parabolic
* parameter data
k  none relative  0.5  0.001 2.0 g1 1.0 0.0 1
s  none relative -5.1 -8.0 -1.0 g2 1.0 0.0 1
B  fixed relative  0.84509804  0.001 2  g3 1.0 0.0 1
kD fixed relative -1.5 -3 -0.001 g4 1.0 0.0 1
cwD fixed relative 2.0 0.01 5 g5 1.0 0.0 1
* observation groups
dat1
* observation data
o1 0.111265 1 dat1
o2 0.118458 1 dat1
o3 0.113675 1 dat1
o4 0.118429 1 dat1
o5 0.115823 1 dat1
o6 0.10957 1 dat1
o7 0.112934 1 dat1
o8 0.11841 1 dat1
o9 0.111425 1 dat1
o10 0.113619 1 dat1
o11 0.111265 1 dat1
o12 0.118761 1 dat1
o13 0.11939 1 dat1
o14 0.117755 1 dat1
o15 0.117722 1 dat1
o16 0.117014 1 dat1
o17 0.118567 1 dat1
o18 0.118537 1 dat1
o19 0.110217 1 dat1
o20 0.113738 1 dat1
o21 0.115143 1 dat1
o22 0.110179 1 dat1
o23 0.120618 1 dat1
o24 0.118899 1 dat1
o25 0.119725 1 dat1
o26 0.112512 1 dat1
o27 0.112729 1 dat1
o28 0.110692 1 dat1
o29 0.115967 1 dat1
o30 0.117076 1 dat1
o31 0.119869 1 dat1
o32 0.114508 1 dat1
o33 0.113411 1 dat1
o34 0.12059 1 dat1
o35 0.114763 1 dat1
o36 0.112419 1 dat1
o37 0.111498 1 dat1
o38 0.112052 1 dat1
o39 0.120587 1 dat1
o40 0.114122 1 dat1
o41 0.120691 1 dat1
o42 0.114596 1 dat1
o43 0.114312 1 dat1
o44 0.113243 1 dat1
o45 0.111531 1 dat1
o46 0.111659 1 dat1
o47 0.119445 1 dat1
o48 0.119551 1 dat1
o49 0.117715 1 dat1
o50 0.114687 1 dat1
o51 0.122621 1 dat1
o52 0.117306 1 dat1
o53 0.121701 1 dat1
o54 0.118526 1 dat1
o55 0.113443 1 dat1
o56 0.118354 1 dat1
o57 0.115253 1 dat1
o58 0.119725 1 dat1
o59 0.118552 1 dat1
o60 0.117657 1 dat1
o61 0.118991 1 dat1
o62 0.114721 1 dat1
o63 0.121642 1 dat1
o64 0.113786 1 dat1
o65 0.113353 1 dat1
o66 0.119676 1 dat1
o67 0.119035 1 dat1
o68 0.115579 1 dat1
o69 0.117368 1 dat1
o70 0.122591 1 dat1
o71 0.121569 1 dat1
o72 0.11316 1 dat1
o73 0.118849 1 dat1
o74 0.122002 1 dat1
o75 0.120986 1 dat1
o76 0.120536 1 dat1
o77 0.118288 1 dat1
o78 0.115915 1 dat1
o79 0.124661 1 dat1
o80 0.122993 1 dat1
o81 0.121205 1 dat1
o82 0.122611 1 dat1
o83 0.115632 1 dat1
o84 0.122014 1 dat1
o85 0.123136 1 dat1
o86 0.123069 1 dat1
o87 0.121119 1 dat1
o88 0.119941 1 dat1
o89 0.123172 1 dat1
o90 0.114516 1 dat1
o91 0.115683 1 dat1
o92 0.122274 1 dat1
o93 0.117885 1 dat1
o94 0.116319 1 dat1
o95 0.121144 1 dat1
o96 0.124748 1 dat1
o97 0.123671 1 dat1
o98 0.116425 1 dat1
o99 0.118748 1 dat1
o100 0.120033 1 dat1
o101 0.121815 1 dat1
o102 0.120289 1 dat1
o103 0.124068 1 dat1
o104 0.122475 1 dat1
o105 0.12659 1 dat1
o106 0.118169 1 dat1
o107 0.120711 1 dat1
o108 0.121387 1 dat1
o109 0.122118 1 dat1
o110 0.118695 1 dat1
o111 0.127489 1 dat1
o112 0.12209 1 dat1
o113 0.125657 1 dat1
o114 0.125193 1 dat1
o115 0.119104 1 dat1
o116 0.117503 1 dat1
o117 0.124747 1 dat1
o118 0.126622 1 dat1
o119 0.121274 1 dat1
o120 0.124872 1 dat1
o121 0.120778 1 dat1
o122 0.127653 1 dat1
o123 0.121231 1 dat1
o124 0.128405 1 dat1
o125 0.118754 1 dat1
o126 0.128527 1 dat1
o127 0.117729 1 dat1
o128 0.118712 1 dat1
o129 0.126202 1 dat1
o130 0.120607 1 dat1
o131 0.123674 1 dat1
o132 0.128527 1 dat1
o133 0.126375 1 dat1
o134 0.123073 1 dat1
o135 0.123309 1 dat1
o136 0.129386 1 dat1
o137 0.126277 1 dat1
o138 0.122022 1 dat1
o139 0.129618 1 dat1
o140 0.122388 1 dat1
o141 0.125022 1 dat1
o142 0.124245 1 dat1
o143 0.121648 1 dat1
o144 0.129548 1 dat1
o145 0.126386 1 dat1
o146 0.128337 1 dat1
o147 0.124382 1 dat1
o148 0.121505 1 dat1
o149 0.130954 1 dat1
o150 0.125815 1 dat1
o151 0.119363 1 dat1
o152 0.128684 1 dat1
o153 0.128936 1 dat1
o154 0.130323 1 dat1
o155 0.125959 1 dat1
o156 0.129479 1 dat1
o157 0.131297 1 dat1
o158 0.125507 1 dat1
o159 0.123375 1 dat1
o160 0.120037 1 dat1
o161 0.121654 1 dat1
o162 0.125607 1 dat1
o163 0.130821 1 dat1
o164 0.125223 1 dat1
o165 0.13055 1 dat1
o166 0.127125 1 dat1
o167 0.121961 1 dat1
o168 0.120981 1 dat1
o169 0.123801 1 dat1
o170 0.129183 1 dat1
o171 0.122558 1 dat1
o172 0.129249 1 dat1
o173 0.132315 1 dat1
o174 0.131775 1 dat1
o175 0.12555 1 dat1
o176 0.12294 1 dat1
o177 0.132443 1 dat1
o178 0.122874 1 dat1
o179 0.124248 1 dat1
o180 0.133062 1 dat1
o181 0.131045 1 dat1
o182 0.123399 1 dat1
o183 0.132115 1 dat1
o184 0.123792 1 dat1
o185 0.12251 1 dat1
o186 0.127227 1 dat1
o187 0.126563 1 dat1
o188 0.128568 1 dat1
o189 0.127867 1 dat1
o190 0.12866 1 dat1
o191 0.130401 1 dat1
o192 0.127048 1 dat1
o193 0.130604 1 dat1
o194 0.124472 1 dat1
o195 0.123283 1 dat1
o196 0.13259 1 dat1
o197 0.125594 1 dat1
o198 0.13158 1 dat1
o199 0.130962 1 dat1
o200 0.127044 1 dat1
o201 0.131478 1 dat1
o202 0.130861 1 dat1
o203 0.12268 1 dat1
o204 0.129997 1 dat1
o205 0.123579 1 dat1
o206 0.127261 1 dat1
o207 0.126171 1 dat1
o208 0.134612 1 dat1
o209 0.132113 1 dat1
o210 0.125444 1 dat1
o211 0.128619 1 dat1
o212 0.128588 1 dat1
o213 0.123165 1 dat1
o214 0.123909 1 dat1
o215 0.134222 1 dat1
o216 0.131794 1 dat1
o217 0.13072 1 dat1
o218 0.125058 1 dat1
o219 0.135907 1 dat1
o220 0.135609 1 dat1
o221 0.129252 1 dat1
o222 0.13358 1 dat1
o223 0.134391 1 dat1
o224 0.12382 1 dat1
o225 0.130243 1 dat1
o226 0.128988 1 dat1
o227 0.134876 1 dat1
o228 0.13319 1 dat1
o229 0.127891 1 dat1
o230 0.1302 1 dat1
o231 0.13143 1 dat1
o232 0.135502 1 dat1
o233 0.132026 1 dat1
o234 0.134679 1 dat1
o235 0.13112 1 dat1
o236 0.130648 1 dat1
o237 0.129544 1 dat1
o238 0.135009 1 dat1
o239 0.124643 1 dat1
o240 0.13708 1 dat1
o241 0.126499 1 dat1
o242 0.130346 1 dat1
o243 0.130124 1 dat1
o244 0.127746 1 dat1
o245 0.130515 1 dat1
o246 0.129094 1 dat1
o247 0.132137 1 dat1
o248 0.133792 1 dat1
o249 0.127116 1 dat1
o250 0.132814 1 dat1
o251 0.127373 1 dat1
o252 0.13428 1 dat1
o253 0.128792 1 dat1
o254 0.125023 1 dat1
o255 0.130888 1 dat1
o256 0.127185 1 dat1
o257 0.130267 1 dat1
o258 0.132061 1 dat1
o259 0.130188 1 dat1
o260 0.134232 1 dat1
o261 0.131179 1 dat1
o262 0.12742 1 dat1
o263 0.13276 1 dat1
o264 0.129392 1 dat1
o265 0.138531 1 dat1
o266 0.125976 1 dat1
o267 0.134095 1 dat1
o268 0.135553 1 dat1
o269 0.127503 1 dat1
o270 0.131498 1 dat1
o271 0.130864 1 dat1
o272 0.127595 1 dat1
o273 0.130654 1 dat1
o274 0.136914 1 dat1
o275 0.12982 1 dat1
o276 0.130352 1 dat1
o277 0.131587 1 dat1
o278 0.130076 1 dat1
o279 0.139285 1 dat1
o280 0.134048 1 dat1
o281 0.13622 1 dat1
o282 0.136172 1 dat1
o283 0.135753 1 dat1
o284 0.128742 1 dat1
o285 0.139413 1 dat1
o286 0.137546 1 dat1
o287 0.138089 1 dat1
o288 0.131837 1 dat1
o289 0.137557 1 dat1
o290 0.135927 1 dat1
o291 0.132503 1 dat1
o292 0.136921 1 dat1
o293 0.130306 1 dat1
o294 0.138232 1 dat1
o295 0.136923 1 dat1
o296 0.131991 1 dat1
o297 0.12971 1 dat1
o298 0.137084 1 dat1
o299 0.130552 1 dat1
o300 0.136198 1 dat1
o301 0.134007 1 dat1
o302 0.134523 1 dat1
o303 0.134327 1 dat1
o304 0.136629 1 dat1
o305 0.129422 1 dat1
o306 0.13532 1 dat1
o307 0.138731 1 dat1
o308 0.131518 1 dat1
o309 0.136198 1 dat1
o310 0.130523 1 dat1
o311 0.139893 1 dat1
o312 0.128971 1 dat1
o313 0.137231 1 dat1
o314 0.139879 1 dat1
o315 0.136103 1 dat1
o316 0.140094 1 dat1
o317 0.140184 1 dat1
o318 0.132771 1 dat1
o319 0.134962 1 dat1
o320 0.140245 1 dat1
o321 0.133862 1 dat1
o322 0.138961 1 dat1
o323 0.134681 1 dat1
o324 0.140687 1 dat1
o325 0.12935 1 dat1
o326 0.136864 1 dat1
o327 0.140895 1 dat1
o328 0.140724 1 dat1
o329 0.141173 1 dat1
o330 0.136373 1 dat1
o331 0.133004 1 dat1
o332 0.13486 1 dat1
o333 0.140735 1 dat1
o334 0.132434 1 dat1
o335 0.134239 1 dat1
o336 0.139108 1 dat1
o337 0.13681 1 dat1
o338 0.140737 1 dat1
o339 0.131662 1 dat1
o340 0.137291 1 dat1
o341 0.141337 1 dat1
o342 0.141197 1 dat1
o343 0.135683 1 dat1
o344 0.132327 1 dat1
o345 0.128872 1 dat1
o346 0.138454 1 dat1
o347 0.14087 1 dat1
o348 0.140564 1 dat1
o349 0.138316 1 dat1
o350 0.13657 1 dat1
o351 0.14195 1 dat1
o352 0.139571 1 dat1
o353 0.135492 1 dat1
o354 0.141419 1 dat1
o355 0.138256 1 dat1
o356 0.14187 1 dat1
o357 0.139948 1 dat1
o358 0.136655 1 dat1
o359 0.141851 1 dat1
o360 0.131163 1 dat1
o361 0.141436 1 dat1
o362 0.131517 1 dat1
o363 0.140811 1 dat1
o364 0.13431 1 dat1
o365 0.141827 1 dat1
o366 0.135569 1 dat1
o367 0.131597 1 dat1
o368 0.133839 1 dat1
o369 0.142008 1 dat1
o370 0.140042 1 dat1
o371 0.13075 1 dat1
o372 0.139689 1 dat1
o373 0.129317 1 dat1
o374 0.141915 1 dat1
o375 0.129904 1 dat1
o376 0.13974 1 dat1
o377 0.138668 1 dat1
o378 0.133748 1 dat1
o379 0.13282 1 dat1
o380 0.131945 1 dat1
o381 0.137109 1 dat1
o382 0.130901 1 dat1
o383 0.129985 1 dat1
o384 0.136149 1 dat1
o385 0.133871 1 dat1
o386 0.140796 1 dat1
o387 0.140191 1 dat1
o388 0.141688 1 dat1
o389 0.137172 1 dat1
o390 0.13668 1 dat1
o391 0.135985 1 dat1
o392 0.135712 1 dat1
o393 0.130584 1 dat1
o394 0.135585 1 dat1
o395 0.128882 1 dat1
o396 0.14159 1 dat1
o397 0.132399 1 dat1
o398 0.13853 1 dat1
o399 0.135985 1 dat1
o400 0.131109 1 dat1
o401 0.130148 1 dat1
o402 0.133593 1 dat1
o403 0.129127 1 dat1
o404 0.128692 1 dat1
o405 0.141619 1 dat1
o406 0.135474 1 dat1
o407 0.13947 1 dat1
o408 0.139986 1 dat1
o409 0.136552 1 dat1
o410 0.135514 1 dat1
o411 0.13415 1 dat1
o412 0.130518 1 dat1
o413 0.138632 1 dat1
o414 0.138593 1 dat1
o415 0.136159 1 dat1
o416 0.129637 1 dat1
o417 0.129015 1 dat1
o418 0.138716 1 dat1
o419 0.13851 1 dat1
o420 0.136371 1 dat1
o421 0.130936 1 dat1
o422 0.130668 1 dat1
o423 0.133218 1 dat1
o424 0.132506 1 dat1
o425 0.135384 1 dat1
o426 0.134027 1 dat1
o427 0.139657 1 dat1
o428 0.139287 1 dat1
o429 0.132685 1 dat1
o430 0.135586 1 dat1
o431 0.140704 1 dat1
o432 0.140473 1 dat1
o433 0.138285 1 dat1
o434 0.140309 1 dat1
o435 0.137758 1 dat1
o436 0.138348 1 dat1
o437 0.137993 1 dat1
o438 0.139154 1 dat1
o439 0.136636 1 dat1
o440 0.133055 1 dat1
o441 0.13801 1 dat1
o442 0.128642 1 dat1
o443 0.131809 1 dat1
o444 0.140075 1 dat1
o445 0.128819 1 dat1
o446 0.130045 1 dat1
o447 0.137356 1 dat1
o448 0.129048 1 dat1
o449 0.127581 1 dat1
o450 0.138875 1 dat1
o451 0.13829 1 dat1
o452 0.133263 1 dat1
o453 0.12776 1 dat1
o454 0.134914 1 dat1
o455 0.128475 1 dat1
o456 0.130324 1 dat1
o457 0.137093 1 dat1
o458 0.137278 1 dat1
o459 0.136658 1 dat1
o460 0.127025 1 dat1
o461 0.13671 1 dat1
o462 0.130626 1 dat1
o463 0.133049 1 dat1
o464 0.134538 1 dat1
o465 0.126161 1 dat1
o466 0.12668 1 dat1
o467 0.126788 1 dat1
o468 0.126324 1 dat1
o469 0.133092 1 dat1
o470 0.130561 1 dat1
o471 0.128558 1 dat1
o472 0.136417 1 dat1
o473 0.130089 1 dat1
o474 0.135634 1 dat1
o475 0.137654 1 dat1
o476 0.134437 1 dat1
o477 0.13121 1 dat1
o478 0.125646 1 dat1
o479 0.126898 1 dat1
o480 0.12757 1 dat1
o481 0.124579 1 dat1
o482 0.134521 1 dat1
o483 0.129309 1 dat1
o484 0.131944 1 dat1
o485 0.134342 1 dat1
o486 0.126175 1 dat1
o487 0.130414 1 dat1
o488 0.124423 1 dat1
o489 0.130189 1 dat1
o490 0.128406 1 dat1
o491 0.126302 1 dat1
o492 0.130859 1 dat1
o493 0.125261 1 dat1
o494 0.124645 1 dat1
o495 0.123848 1 dat1
o496 0.133932 1 dat1
o497 0.133051 1 dat1
o498 0.129761 1 dat1
o499 0.127085 1 dat1
o500 0.124118 1 dat1
o501 0.1352 1 dat1
o502 0.131019 1 dat1
o503 0.123458 1 dat1
o504 0.133552 1 dat1
o505 0.134702 1 dat1
o506 0.126107 1 dat1
o507 0.125486 1 dat1
o508 0.12695 1 dat1
o509 0.129631 1 dat1
o510 0.126572 1 dat1
o511 0.128398 1 dat1
o512 0.128873 1 dat1
o513 0.127438 1 dat1
o514 0.125507 1 dat1
o515 0.131546 1 dat1
o516 0.132399 1 dat1
o517 0.127441 1 dat1
o518 0.129089 1 dat1
o519 0.132544 1 dat1
o520 0.129854 1 dat1
o521 0.127411 1 dat1
o522 0.124452 1 dat1
o523 0.125025 1 dat1
o524 0.122262 1 dat1
o525 0.12636 1 dat1
o526 0.120288 1 dat1
o527 0.128198 1 dat1
o528 0.128272 1 dat1
o529 0.128901 1 dat1
o530 0.129698 1 dat1
o531 0.130128 1 dat1
o532 0.124575 1 dat1
o533 0.129126 1 dat1
o534 0.119498 1 dat1
o535 0.11733 1 dat1
o536 0.121658 1 dat1
o537 0.118926 1 dat1
o538 0.118171 1 dat1
o539 0.126772 1 dat1
o540 0.120179 1 dat1
o541 0.120739 1 dat1
o542 0.122545 1 dat1
o543 0.125052 1 dat1
o544 0.124861 1 dat1
o545 0.121827 1 dat1
o546 0.126193 1 dat1
o547 0.121068 1 dat1
o548 0.118353 1 dat1
o549 0.120275 1 dat1
o550 0.12624 1 dat1
o551 0.126753 1 dat1
o552 0.120627 1 dat1
o553 0.12505 1 dat1
o554 0.115522 1 dat1
o555 0.122448 1 dat1
o556 0.124265 1 dat1
o557 0.125615 1 dat1
o558 0.126331 1 dat1
o559 0.124478 1 dat1
o560 0.121919 1 dat1
o561 0.116393 1 dat1
o562 0.120593 1 dat1
o563 0.122122 1 dat1
o564 0.122075 1 dat1
o565 0.118215 1 dat1
o566 0.119479 1 dat1
o567 0.118267 1 dat1
o568 0.118275 1 dat1
o569 0.12242 1 dat1
o570 0.126107 1 dat1
o571 0.119169 1 dat1
o572 0.127065 1 dat1
o573 0.120032 1 dat1
o574 0.127037 1 dat1
o575 0.122475 1 dat1
o576 0.11668 1 dat1
o577 0.12135 1 dat1
o578 0.119786 1 dat1
o579 0.119195 1 dat1
o580 0.126173 1 dat1
o581 0.122708 1 dat1
o582 0.122734 1 dat1
o583 0.120321 1 dat1
o584 0.127907 1 dat1
o585 0.120578 1 dat1
o586 0.126175 1 dat1
o587 0.11703 1 dat1
o588 0.124262 1 dat1
o589 0.125734 1 dat1
o590 0.122886 1 dat1
o591 0.120285 1 dat1
o592 0.118481 1 dat1
o593 0.117644 1 dat1
o594 0.117419 1 dat1
o595 0.124153 1 dat1
o596 0.123322 1 dat1
o597 0.1254 1 dat1
o598 0.125507 1 dat1
o599 0.117829 1 dat1
o600 0.119894 1 dat1
o601 0.121395 1 dat1
o602 0.119416 1 dat1
o603 0.123321 1 dat1
o604 0.127993 1 dat1
o605 0.122388 1 dat1
o606 0.11952 1 dat1
o607 0.128994 1 dat1
o608 0.123294 1 dat1
o609 0.122246 1 dat1
o610 0.128439 1 dat1
o611 0.119563 1 dat1
o612 0.125017 1 dat1
o613 0.124227 1 dat1
o614 0.123967 1 dat1
o615 0.129808 1 dat1
o616 0.1278 1 dat1
o617 0.128412 1 dat1
o618 0.123715 1 dat1
o619 0.120856 1 dat1
o620 0.119356 1 dat1
o621 0.118565 1 dat1
o622 0.128254 1 dat1
o623 0.122897 1 dat1
o624 0.12426 1 dat1
o625 0.129899 1 dat1
o626 0.124658 1 dat1
o627 0.119329 1 dat1
o628 0.122444 1 dat1
o629 0.126826 1 dat1
o630 0.129934 1 dat1
o631 0.120564 1 dat1
o632 0.127862 1 dat1
o633 0.126449 1 dat1
o634 0.130344 1 dat1
o635 0.129832 1 dat1
o636 0.122058 1 dat1
o637 0.121428 1 dat1
o638 0.128566 1 dat1
o639 0.129715 1 dat1
o640 0.123116 1 dat1
o641 0.127375 1 dat1
o642 0.130986 1 dat1
o643 0.129204 1 dat1
o644 0.123811 1 dat1
o645 0.130933 1 dat1
o646 0.122991 1 dat1
o647 0.122794 1 dat1
o648 0.127555 1 dat1
o649 0.125456 1 dat1
o650 0.126641 1 dat1
o651 0.122656 1 dat1
o652 0.120135 1 dat1
o653 0.127267 1 dat1
o654 0.131686 1 dat1
o655 0.121504 1 dat1
o656 0.123095 1 dat1
o657 0.12441 1 dat1
o658 0.132705 1 dat1
o659 0.12731 1 dat1
o660 0.124015 1 dat1
o661 0.13363 1 dat1
o662 0.135174 1 dat1
o663 0.125924 1 dat1
o664 0.131115 1 dat1
o665 0.134187 1 dat1
o666 0.128342 1 dat1
o667 0.127369 1 dat1
o668 0.133452 1 dat1
o669 0.13646 1 dat1
o670 0.136395 1 dat1
o671 0.130182 1 dat1
o672 0.135958 1 dat1
o673 0.135119 1 dat1
o674 0.137939 1 dat1
o675 0.133297 1 dat1
o676 0.127722 1 dat1
o677 0.135137 1 dat1
o678 0.135465 1 dat1
o679 0.133554 1 dat1
o680 0.132238 1 dat1
o681 0.139227 1 dat1
o682 0.129541 1 dat1
o683 0.131668 1 dat1
o684 0.132879 1 dat1
o685 0.131056 1 dat1
o686 0.136925 1 dat1
o687 0.130566 1 dat1
o688 0.144089 1 dat1
o689 0.138029 1 dat1
o690 0.139768 1 dat1
o691 0.144922 1 dat1
o692 0.141047 1 dat1
o693 0.14056 1 dat1
o694 0.143461 1 dat1
o695 0.140516 1 dat1
o696 0.135896 1 dat1
o697 0.13558 1 dat1
o698 0.134614 1 dat1
o699 0.138913 1 dat1
o700 0.142455 1 dat1
o701 0.139849 1 dat1
o702 0.138471 1 dat1
o703 0.143776 1 dat1
o704 0.139575 1 dat1
o705 0.139432 1 dat1
o706 0.137162 1 dat1
o707 0.143056 1 dat1
o708 0.142405 1 dat1
o709 0.147187 1 dat1
o710 0.152023 1 dat1
o711 0.147761 1 dat1
o712 0.140961 1 dat1
o713 0.150064 1 dat1
o714 0.154282 1 dat1
o715 0.155284 1 dat1
o716 0.149456 1 dat1
o717 0.148538 1 dat1
o718 0.150308 1 dat1
o719 0.153704 1 dat1
o720 0.15841 1 dat1
o721 0.157428 1 dat1
o722 0.149554 1 dat1
o723 0.152857 1 dat1
o724 0.151901 1 dat1
o725 0.15246 1 dat1
o726 0.15716 1 dat1
o727 0.152008 1 dat1
o728 0.166252 1 dat1
o729 0.156915 1 dat1
o730 0.162099 1 dat1
o731 0.158261 1 dat1
o732 0.157747 1 dat1
o733 0.156739 1 dat1
o734 0.164055 1 dat1
o735 0.161694 1 dat1
o736 0.174576 1 dat1
o737 0.173921 1 dat1
o738 0.166912 1 dat1
o739 0.169309 1 dat1
o740 0.163704 1 dat1
o741 0.175249 1 dat1
o742 0.166695 1 dat1
o743 0.173325 1 dat1
o744 0.171147 1 dat1
o745 0.173482 1 dat1
o746 0.178185 1 dat1
o747 0.184085 1 dat1
o748 0.187197 1 dat1
o749 0.179604 1 dat1
o750 0.181164 1 dat1
o751 0.180977 1 dat1
o752 0.18993 1 dat1
o753 0.182295 1 dat1
o754 0.180803 1 dat1
o755 0.173766 1 dat1
o756 0.183377 1 dat1
o757 0.178365 1 dat1
o758 0.16918 1 dat1
o759 0.17127 1 dat1
o760 0.172441 1 dat1
o761 0.171916 1 dat1
o762 0.176091 1 dat1
o763 0.166975 1 dat1
o764 0.171223 1 dat1
o765 0.17329 1 dat1
o766 0.164395 1 dat1
o767 0.166757 1 dat1
o768 0.168424 1 dat1
o769 0.167026 1 dat1
o770 0.155659 1 dat1
o771 0.159434 1 dat1
o772 0.152141 1 dat1
o773 0.149373 1 dat1
o774 0.156817 1 dat1
o775 0.156254 1 dat1
o776 0.149089 1 dat1
o777 0.145512 1 dat1
o778 0.142176 1 dat1
o779 0.147096 1 dat1
o780 0.150237 1 dat1
o781 0.13981 1 dat1
o782 0.146229 1 dat1
o783 0.141949 1 dat1
o784 0.137201 1 dat1
o785 0.13924 1 dat1
o786 0.143948 1 dat1
o787 0.147241 1 dat1
o788 0.136184 1 dat1
o789 0.142874 1 dat1
o790 0.144261 1 dat1
o791 0.143336 1 dat1
o792 0.14774 1 dat1
o793 0.141455 1 dat1
o794 0.145597 1 dat1
o795 0.14855 1 dat1
o796 0.149843 1 dat1
o797 0.157047 1 dat1
o798 0.146141 1 dat1
o799 0.146051 1 dat1
o800 0.159925 1 dat1
o801 0.15109 1 dat1
o802 0.159161 1 dat1
o803 0.161298 1 dat1
o804 0.157351 1 dat1
o805 0.160554 1 dat1
o806 0.169086 1 dat1
o807 0.158473 1 dat1
o808 0.165408 1 dat1
o809 0.159334 1 dat1
o810 0.174455 1 dat1
o811 0.174418 1 dat1
o812 0.165507 1 dat1
o813 0.174031 1 dat1
o814 0.165401 1 dat1
o815 0.165501 1 dat1
o816 0.176047 1 dat1
o817 0.169075 1 dat1
o818 0.173208 1 dat1
o819 0.170481 1 dat1
o820 0.163945 1 dat1
o821 0.166497 1 dat1
o822 0.172107 1 dat1
o823 0.163003 1 dat1
o824 0.171456 1 dat1
o825 0.168281 1 dat1
o826 0.174186 1 dat1
o827 0.168649 1 dat1
o828 0.16651 1 dat1
o829 0.17358 1 dat1
o830 0.16748 1 dat1
o831 0.164511 1 dat1
o832 0.16154 1 dat1
o833 0.164995 1 dat1
o834 0.173908 1 dat1
o835 0.17656 1 dat1
o836 0.178445 1 dat1
o837 0.173131 1 dat1
o838 0.168849 1 dat1
o839 0.175386 1 dat1
o840 0.179594 1 dat1
o841 0.181688 1 dat1
o842 0.173908 1 dat1
o843 0.171758 1 dat1
o844 0.176501 1 dat1
o845 0.173462 1 dat1
o846 0.185007 1 dat1
o847 0.173169 1 dat1
o848 0.181814 1 dat1
o849 0.177715 1 dat1
o850 0.176938 1 dat1
o851 0.179241 1 dat1
o852 0.189225 1 dat1
o853 0.181288 1 dat1
o854 0.189665 1 dat1
o855 0.182892 1 dat1
o856 0.184622 1 dat1
o857 0.189688 1 dat1
o858 0.178382 1 dat1
o859 0.18575 1 dat1
o860 0.182053 1 dat1
o861 0.182061 1 dat1
o862 0.180601 1 dat1
o863 0.176011 1 dat1
o864 0.177618 1 dat1
o865 0.169435 1 dat1
o866 0.162324 1 dat1
o867 0.166659 1 dat1
o868 0.172847 1 dat1
o869 0.169712 1 dat1
o870 0.154656 1 dat1
o871 0.16148 1 dat1
o872 0.160969 1 dat1
o873 0.159205 1 dat1
o874 0.157645 1 dat1
o875 0.16409 1 dat1
o876 0.162625 1 dat1
o877 0.168972 1 dat1
o878 0.159097 1 dat1
o879 0.159274 1 dat1
o880 0.169206 1 dat1
o881 0.166534 1 dat1
o882 0.178065 1 dat1
o883 0.165901 1 dat1
o884 0.173493 1 dat1
o885 0.169433 1 dat1
o886 0.173494 1 dat1
o887 0.186615 1 dat1
o888 0.178374 1 dat1
o889 0.175457 1 dat1
o890 0.183717 1 dat1
o891 0.189113 1 dat1
o892 0.183681 1 dat1
o893 0.189779 1 dat1
o894 0.174601 1 dat1
o895 0.174302 1 dat1
o896 0.177607 1 dat1
o897 0.172483 1 dat1
o898 0.170108 1 dat1
o899 0.16889 1 dat1
o900 0.178695 1 dat1
o901 0.165968 1 dat1
o902 0.176021 1 dat1
o903 0.172145 1 dat1
o904 0.170263 1 dat1
o905 0.161179 1 dat1
o906 0.166866 1 dat1
o907 0.176508 1 dat1
o908 0.182472 1 dat1
o909 0.181306 1 dat1
o910 0.185242 1 dat1
o911 0.178747 1 dat1
o912 0.185284 1 dat1
o913 0.190122 1 dat1
o914 0.196348 1 dat1
o915 0.19276 1 dat1
o916 0.199027 1 dat1
o917 0.193187 1 dat1
o918 0.197267 1 dat1
o919 0.203457 1 dat1
o920 0.196416 1 dat1
o921 0.198408 1 dat1
o922 0.190314 1 dat1
o923 0.199314 1 dat1
o924 0.190853 1 dat1
o925 0.182777 1 dat1
o926 0.190711 1 dat1
o927 0.183429 1 dat1
o928 0.188116 1 dat1
o929 0.187035 1 dat1
o930 0.193383 1 dat1
o931 0.191157 1 dat1
o932 0.188331 1 dat1
o933 0.189454 1 dat1
o934 0.1822 1 dat1
o935 0.195765 1 dat1
o936 0.189194 1 dat1
o937 0.199245 1 dat1
o938 0.196603 1 dat1
o939 0.190502 1 dat1
o940 0.190163 1 dat1
o941 0.195644 1 dat1
o942 0.198519 1 dat1
o943 0.18923 1 dat1
o944 0.19305 1 dat1
o945 0.188336 1 dat1
o946 0.186848 1 dat1
o947 0.173117 1 dat1
o948 0.171325 1 dat1
o949 0.171447 1 dat1
o950 0.164928 1 dat1
o951 0.165518 1 dat1
o952 0.162306 1 dat1
o953 0.15399 1 dat1
o954 0.15361 1 dat1
o955 0.166828 1 dat1
o956 0.170661 1 dat1
o957 0.178437 1 dat1
o958 0.169665 1 dat1
o959 0.182909 1 dat1
o960 0.192553 1 dat1
o961 0.182193 1 dat1
o962 0.190632 1 dat1
o963 0.189709 1 dat1
o964 0.193219 1 dat1
o965 0.189634 1 dat1
o966 0.202588 1 dat1
o967 0.1939 1 dat1
o968 0.193297 1 dat1
o969 0.197253 1 dat1
o970 0.190373 1 dat1
o971 0.187816 1 dat1
o972 0.200892 1 dat1
o973 0.197087 1 dat1
o974 0.182523 1 dat1
o975 0.190549 1 dat1
o976 0.182016 1 dat1
o977 0.177221 1 dat1
o978 0.184612 1 dat1
o979 0.177366 1 dat1
o980 0.180274 1 dat1
o981 0.169399 1 dat1
o982 0.165802 1 dat1
o983 0.174421 1 dat1
o984 0.167817 1 dat1
o985 0.17168 1 dat1
o986 0.167643 1 dat1
o987 0.157469 1 dat1
o988 0.157487 1 dat1
o989 0.149249 1 dat1
o990 0.151608 1 dat1
o991 0.159782 1 dat1
o992 0.155786 1 dat1
o993 0.160038 1 dat1
o994 0.162446 1 dat1
o995 0.178883 1 dat1
o996 0.178529 1 dat1
o997 0.188318 1 dat1
o998 0.192071 1 dat1
o999 0.206148 1 dat1
o1000 0.204823 1 dat1
o1001 0.198858 1 dat1
o1002 0.204525 1 dat1
o1003 0.188885 1 dat1
o1004 0.196797 1 dat1
o1005 0.187869 1 dat1
o1006 0.190908 1 dat1
o1007 0.182187 1 dat1
o1008 0.192841 1 dat1
o1009 0.188776 1 dat1
o1010 0.193639 1 dat1
o1011 0.200952 1 dat1
o1012 0.193433 1 dat1
o1013 0.202864 1 dat1
o1014 0.198148 1 dat1
o1015 0.214039 1 dat1
o1016 0.197393 1 dat1
o1017 0.196163 1 dat1
o1018 0.206341 1 dat1
o1019 0.196243 1 dat1
o1020 0.190083 1 dat1
o1021 0.188411 1 dat1
o1022 0.17724 1 dat1
* model command line 
wells linear-fixB-err >& /dev/null
* model input/output
linear-fixB-err.tpl linear-fixB-err.wells
linear-fixB-err.inst linear-fixB-err.s_point
