pcf
* control data
restart estimation
5 1022 5 0 1
1 1 double point 1 0 0
0.1 1.1 0.3 0.01 10
3.0 3.0 1.0e-5     
0.1                
50 0.0015 4 3 0.001 3
1 1 1
* parameter groups
g1 relative 0.05  0.00 always_3 1.0 parabolic
g2 relative 0.05  0.00 always_3 1.0 parabolic
g3 relative 0.1  0.00 always_3 1.0 parabolic
g4 relative 0.05  0.00 always_3 1.0 parabolic
g5 relative 0.05  0.00 always_3 1.0 parabolic
* parameter data
k  none relative  0.001  0.001 2.0 g1 1.0 0.0 1
s  none relative -4.1 -8.0 -1.0 g2 1.0 0.0 1
B  none relative  6.0  6 9  g3 1.0 0.0 1
kD fixed relative -1.5 -3 -0.001 g4 1.0 0.0 1
cwD fixed relative 2.0 0.01 5 g5 1.0 0.0 1
* observation gr
dat1
* observation data
o1 0.113199 1  dat1
o2 0.113282 1  dat1
o3 0.113365 1  dat1
o4 0.113447 1  dat1
o5 0.11353 1  dat1
o6 0.113612 1  dat1
o7 0.113694 1  dat1
o8 0.113777 1  dat1
o9 0.113859 1  dat1
o10 0.113942 1  dat1
o11 0.114024 1  dat1
o12 0.114106 1  dat1
o13 0.114188 1  dat1
o14 0.11427 1  dat1
o15 0.114352 1  dat1
o16 0.114434 1  dat1
o17 0.114516 1  dat1
o18 0.114598 1  dat1
o19 0.11468 1  dat1
o20 0.114762 1  dat1
o21 0.114844 1  dat1
o22 0.114926 1  dat1
o23 0.115008 1  dat1
o24 0.115089 1  dat1
o25 0.115171 1  dat1
o26 0.115253 1  dat1
o27 0.115334 1  dat1
o28 0.115416 1  dat1
o29 0.115497 1  dat1
o30 0.115578 1  dat1
o31 0.11566 1  dat1
o32 0.115741 1  dat1
o33 0.115822 1  dat1
o34 0.115904 1  dat1
o35 0.115985 1  dat1
o36 0.116066 1  dat1
o37 0.116147 1  dat1
o38 0.116228 1  dat1
o39 0.116309 1  dat1
o40 0.11639 1  dat1
o41 0.116471 1  dat1
o42 0.116552 1  dat1
o43 0.116633 1  dat1
o44 0.116713 1  dat1
o45 0.116794 1  dat1
o46 0.116875 1  dat1
o47 0.116955 1  dat1
o48 0.117036 1  dat1
o49 0.117116 1  dat1
o50 0.117197 1  dat1
o51 0.117277 1  dat1
o52 0.117357 1  dat1
o53 0.117437 1  dat1
o54 0.117518 1  dat1
o55 0.117598 1  dat1
o56 0.117678 1  dat1
o57 0.117758 1  dat1
o58 0.117838 1  dat1
o59 0.117918 1  dat1
o60 0.117998 1  dat1
o61 0.118077 1  dat1
o62 0.118157 1  dat1
o63 0.118237 1  dat1
o64 0.118316 1  dat1
o65 0.118396 1  dat1
o66 0.118475 1  dat1
o67 0.118555 1  dat1
o68 0.118634 1  dat1
o69 0.118713 1  dat1
o70 0.118793 1  dat1
o71 0.118872 1  dat1
o72 0.118951 1  dat1
o73 0.11903 1  dat1
o74 0.119109 1  dat1
o75 0.119188 1  dat1
o76 0.119267 1  dat1
o77 0.119345 1  dat1
o78 0.119424 1  dat1
o79 0.119503 1  dat1
o80 0.119581 1  dat1
o81 0.11966 1  dat1
o82 0.119738 1  dat1
o83 0.119817 1  dat1
o84 0.119895 1  dat1
o85 0.119973 1  dat1
o86 0.120051 1  dat1
o87 0.120129 1  dat1
o88 0.120207 1  dat1
o89 0.120285 1  dat1
o90 0.120363 1  dat1
o91 0.120441 1  dat1
o92 0.120519 1  dat1
o93 0.120596 1  dat1
o94 0.120674 1  dat1
o95 0.120751 1  dat1
o96 0.120829 1  dat1
o97 0.120906 1  dat1
o98 0.120983 1  dat1
o99 0.12106 1  dat1
o100 0.121138 1  dat1
o101 0.121215 1  dat1
o102 0.121292 1  dat1
o103 0.121368 1  dat1
o104 0.121445 1  dat1
o105 0.121522 1  dat1
o106 0.121598 1  dat1
o107 0.121675 1  dat1
o108 0.121751 1  dat1
o109 0.121828 1  dat1
o110 0.121904 1  dat1
o111 0.12198 1  dat1
o112 0.122056 1  dat1
o113 0.122132 1  dat1
o114 0.122208 1  dat1
o115 0.122284 1  dat1
o116 0.12236 1  dat1
o117 0.122435 1  dat1
o118 0.122511 1  dat1
o119 0.122586 1  dat1
o120 0.122662 1  dat1
o121 0.122737 1  dat1
o122 0.122812 1  dat1
o123 0.122887 1  dat1
o124 0.122962 1  dat1
o125 0.123037 1  dat1
o126 0.123112 1  dat1
o127 0.123187 1  dat1
o128 0.123261 1  dat1
o129 0.123336 1  dat1
o130 0.12341 1  dat1
o131 0.123484 1  dat1
o132 0.123559 1  dat1
o133 0.123633 1  dat1
o134 0.123707 1  dat1
o135 0.123781 1  dat1
o136 0.123854 1  dat1
o137 0.123928 1  dat1
o138 0.124002 1  dat1
o139 0.124075 1  dat1
o140 0.124148 1  dat1
o141 0.124222 1  dat1
o142 0.124295 1  dat1
o143 0.124368 1  dat1
o144 0.124441 1  dat1
o145 0.124514 1  dat1
o146 0.124586 1  dat1
o147 0.124659 1  dat1
o148 0.124731 1  dat1
o149 0.124804 1  dat1
o150 0.124876 1  dat1
o151 0.124948 1  dat1
o152 0.12502 1  dat1
o153 0.125092 1  dat1
o154 0.125164 1  dat1
o155 0.125235 1  dat1
o156 0.125307 1  dat1
o157 0.125378 1  dat1
o158 0.125449 1  dat1
o159 0.125521 1  dat1
o160 0.125592 1  dat1
o161 0.125663 1  dat1
o162 0.125733 1  dat1
o163 0.125804 1  dat1
o164 0.125874 1  dat1
o165 0.125945 1  dat1
o166 0.126015 1  dat1
o167 0.126085 1  dat1
o168 0.126155 1  dat1
o169 0.126225 1  dat1
o170 0.126295 1  dat1
o171 0.126364 1  dat1
o172 0.126434 1  dat1
o173 0.126503 1  dat1
o174 0.126572 1  dat1
o175 0.126641 1  dat1
o176 0.12671 1  dat1
o177 0.126779 1  dat1
o178 0.126848 1  dat1
o179 0.126916 1  dat1
o180 0.126984 1  dat1
o181 0.127053 1  dat1
o182 0.127121 1  dat1
o183 0.127188 1  dat1
o184 0.127256 1  dat1
o185 0.127324 1  dat1
o186 0.127391 1  dat1
o187 0.127458 1  dat1
o188 0.127526 1  dat1
o189 0.127593 1  dat1
o190 0.127659 1  dat1
o191 0.127726 1  dat1
o192 0.127792 1  dat1
o193 0.127859 1  dat1
o194 0.127925 1  dat1
o195 0.127991 1  dat1
o196 0.128057 1  dat1
o197 0.128122 1  dat1
o198 0.128188 1  dat1
o199 0.128253 1  dat1
o200 0.128318 1  dat1
o201 0.128383 1  dat1
o202 0.128448 1  dat1
o203 0.128513 1  dat1
o204 0.128577 1  dat1
o205 0.128642 1  dat1
o206 0.128706 1  dat1
o207 0.12877 1  dat1
o208 0.128834 1  dat1
o209 0.128897 1  dat1
o210 0.128961 1  dat1
o211 0.129024 1  dat1
o212 0.129087 1  dat1
o213 0.12915 1  dat1
o214 0.129212 1  dat1
o215 0.129275 1  dat1
o216 0.129337 1  dat1
o217 0.129399 1  dat1
o218 0.129461 1  dat1
o219 0.129523 1  dat1
o220 0.129584 1  dat1
o221 0.129646 1  dat1
o222 0.129707 1  dat1
o223 0.129768 1  dat1
o224 0.129828 1  dat1
o225 0.129889 1  dat1
o226 0.129949 1  dat1
o227 0.130009 1  dat1
o228 0.130069 1  dat1
o229 0.130129 1  dat1
o230 0.130188 1  dat1
o231 0.130247 1  dat1
o232 0.130306 1  dat1
o233 0.130365 1  dat1
o234 0.130424 1  dat1
o235 0.130482 1  dat1
o236 0.13054 1  dat1
o237 0.130598 1  dat1
o238 0.130656 1  dat1
o239 0.130713 1  dat1
o240 0.130771 1  dat1
o241 0.130828 1  dat1
o242 0.130884 1  dat1
o243 0.130941 1  dat1
o244 0.130997 1  dat1
o245 0.131053 1  dat1
o246 0.131109 1  dat1
o247 0.131165 1  dat1
o248 0.13122 1  dat1
o249 0.131275 1  dat1
o250 0.13133 1  dat1
o251 0.131385 1  dat1
o252 0.131439 1  dat1
o253 0.131493 1  dat1
o254 0.131547 1  dat1
o255 0.131601 1  dat1
o256 0.131654 1  dat1
o257 0.131707 1  dat1
o258 0.13176 1  dat1
o259 0.131812 1  dat1
o260 0.131865 1  dat1
o261 0.131917 1  dat1
o262 0.131969 1  dat1
o263 0.13202 1  dat1
o264 0.132071 1  dat1
o265 0.132122 1  dat1
o266 0.132173 1  dat1
o267 0.132223 1  dat1
o268 0.132273 1  dat1
o269 0.132323 1  dat1
o270 0.132373 1  dat1
o271 0.132422 1  dat1
o272 0.132471 1  dat1
o273 0.13252 1  dat1
o274 0.132568 1  dat1
o275 0.132616 1  dat1
o276 0.132664 1  dat1
o277 0.132711 1  dat1
o278 0.132758 1  dat1
o279 0.132805 1  dat1
o280 0.132852 1  dat1
o281 0.132898 1  dat1
o282 0.132944 1  dat1
o283 0.13299 1  dat1
o284 0.133035 1  dat1
o285 0.13308 1  dat1
o286 0.133124 1  dat1
o287 0.133169 1  dat1
o288 0.133213 1  dat1
o289 0.133256 1  dat1
o290 0.1333 1  dat1
o291 0.133343 1  dat1
o292 0.133385 1  dat1
o293 0.133428 1  dat1
o294 0.13347 1  dat1
o295 0.133511 1  dat1
o296 0.133553 1  dat1
o297 0.133594 1  dat1
o298 0.133634 1  dat1
o299 0.133674 1  dat1
o300 0.133714 1  dat1
o301 0.133754 1  dat1
o302 0.133793 1  dat1
o303 0.133832 1  dat1
o304 0.13387 1  dat1
o305 0.133908 1  dat1
o306 0.133946 1  dat1
o307 0.133983 1  dat1
o308 0.13402 1  dat1
o309 0.134056 1  dat1
o310 0.134093 1  dat1
o311 0.134128 1  dat1
o312 0.134164 1  dat1
o313 0.134199 1  dat1
o314 0.134233 1  dat1
o315 0.134267 1  dat1
o316 0.134301 1  dat1
o317 0.134335 1  dat1
o318 0.134367 1  dat1
o319 0.1344 1  dat1
o320 0.134432 1  dat1
o321 0.134464 1  dat1
o322 0.134495 1  dat1
o323 0.134526 1  dat1
o324 0.134556 1  dat1
o325 0.134586 1  dat1
o326 0.134616 1  dat1
o327 0.134645 1  dat1
o328 0.134674 1  dat1
o329 0.134702 1  dat1
o330 0.13473 1  dat1
o331 0.134757 1  dat1
o332 0.134784 1  dat1
o333 0.13481 1  dat1
o334 0.134836 1  dat1
o335 0.134862 1  dat1
o336 0.134887 1  dat1
o337 0.134911 1  dat1
o338 0.134935 1  dat1
o339 0.134959 1  dat1
o340 0.134982 1  dat1
o341 0.135005 1  dat1
o342 0.135027 1  dat1
o343 0.135048 1  dat1
o344 0.135069 1  dat1
o345 0.13509 1  dat1
o346 0.13511 1  dat1
o347 0.13513 1  dat1
o348 0.135149 1  dat1
o349 0.135168 1  dat1
o350 0.135186 1  dat1
o351 0.135203 1  dat1
o352 0.13522 1  dat1
o353 0.135237 1  dat1
o354 0.135253 1  dat1
o355 0.135268 1  dat1
o356 0.135283 1  dat1
o357 0.135297 1  dat1
o358 0.135311 1  dat1
o359 0.135324 1  dat1
o360 0.135337 1  dat1
o361 0.135349 1  dat1
o362 0.13536 1  dat1
o363 0.135371 1  dat1
o364 0.135382 1  dat1
o365 0.135391 1  dat1
o366 0.135401 1  dat1
o367 0.135409 1  dat1
o368 0.135417 1  dat1
o369 0.135425 1  dat1
o370 0.135431 1  dat1
o371 0.135438 1  dat1
o372 0.135443 1  dat1
o373 0.135448 1  dat1
o374 0.135452 1  dat1
o375 0.135456 1  dat1
o376 0.135459 1  dat1
o377 0.135462 1  dat1
o378 0.135463 1  dat1
o379 0.135465 1  dat1
o380 0.135465 1  dat1
o381 0.135465 1  dat1
o382 0.135464 1  dat1
o383 0.135463 1  dat1
o384 0.13546 1  dat1
o385 0.135458 1  dat1
o386 0.135454 1  dat1
o387 0.13545 1  dat1
o388 0.135445 1  dat1
o389 0.135439 1  dat1
o390 0.135433 1  dat1
o391 0.135426 1  dat1
o392 0.135418 1  dat1
o393 0.13541 1  dat1
o394 0.135401 1  dat1
o395 0.135391 1  dat1
o396 0.13538 1  dat1
o397 0.135369 1  dat1
o398 0.135357 1  dat1
o399 0.135344 1  dat1
o400 0.13533 1  dat1
o401 0.135316 1  dat1
o402 0.135301 1  dat1
o403 0.135285 1  dat1
o404 0.135268 1  dat1
o405 0.135251 1  dat1
o406 0.135232 1  dat1
o407 0.135213 1  dat1
o408 0.135193 1  dat1
o409 0.135173 1  dat1
o410 0.135151 1  dat1
o411 0.135129 1  dat1
o412 0.135106 1  dat1
o413 0.135082 1  dat1
o414 0.135057 1  dat1
o415 0.135031 1  dat1
o416 0.135005 1  dat1
o417 0.134978 1  dat1
o418 0.134949 1  dat1
o419 0.13492 1  dat1
o420 0.13489 1  dat1
o421 0.134859 1  dat1
o422 0.134828 1  dat1
o423 0.134795 1  dat1
o424 0.134761 1  dat1
o425 0.134727 1  dat1
o426 0.134692 1  dat1
o427 0.134655 1  dat1
o428 0.134618 1  dat1
o429 0.13458 1  dat1
o430 0.134541 1  dat1
o431 0.134501 1  dat1
o432 0.134459 1  dat1
o433 0.134417 1  dat1
o434 0.134375 1  dat1
o435 0.134331 1  dat1
o436 0.134286 1  dat1
o437 0.13424 1  dat1
o438 0.134193 1  dat1
o439 0.134145 1  dat1
o440 0.134096 1  dat1
o441 0.134046 1  dat1
o442 0.133995 1  dat1
o443 0.133943 1  dat1
o444 0.133889 1  dat1
o445 0.133835 1  dat1
o446 0.13378 1  dat1
o447 0.133724 1  dat1
o448 0.133666 1  dat1
o449 0.133608 1  dat1
o450 0.133548 1  dat1
o451 0.133487 1  dat1
o452 0.133426 1  dat1
o453 0.133363 1  dat1
o454 0.133299 1  dat1
o455 0.133233 1  dat1
o456 0.133167 1  dat1
o457 0.133099 1  dat1
o458 0.133031 1  dat1
o459 0.132961 1  dat1
o460 0.13289 1  dat1
o461 0.132818 1  dat1
o462 0.132744 1  dat1
o463 0.13267 1  dat1
o464 0.132594 1  dat1
o465 0.132517 1  dat1
o466 0.132438 1  dat1
o467 0.132359 1  dat1
o468 0.132278 1  dat1
o469 0.132196 1  dat1
o470 0.132112 1  dat1
o471 0.132028 1  dat1
o472 0.131942 1  dat1
o473 0.131855 1  dat1
o474 0.131766 1  dat1
o475 0.131676 1  dat1
o476 0.131585 1  dat1
o477 0.131492 1  dat1
o478 0.131399 1  dat1
o479 0.131303 1  dat1
o480 0.131207 1  dat1
o481 0.131109 1  dat1
o482 0.131009 1  dat1
o483 0.130908 1  dat1
o484 0.130806 1  dat1
o485 0.130703 1  dat1
o486 0.130597 1  dat1
o487 0.130491 1  dat1
o488 0.130383 1  dat1
o489 0.130273 1  dat1
o490 0.130163 1  dat1
o491 0.13005 1  dat1
o492 0.129936 1  dat1
o493 0.129821 1  dat1
o494 0.129704 1  dat1
o495 0.129585 1  dat1
o496 0.129465 1  dat1
o497 0.129344 1  dat1
o498 0.129221 1  dat1
o499 0.129096 1  dat1
o500 0.12897 1  dat1
o501 0.128842 1  dat1
o502 0.128712 1  dat1
o503 0.128581 1  dat1
o504 0.128448 1  dat1
o505 0.128314 1  dat1
o506 0.128177 1  dat1
o507 0.12804 1  dat1
o508 0.1279 1  dat1
o509 0.127759 1  dat1
o510 0.127616 1  dat1
o511 0.127471 1  dat1
o512 0.127325 1  dat1
o513 0.127177 1  dat1
o514 0.127027 1  dat1
o515 0.126875 1  dat1
o516 0.126722 1  dat1
o517 0.126566 1  dat1
o518 0.126409 1  dat1
o519 0.12625 1  dat1
o520 0.12609 1  dat1
o521 0.125927 1  dat1
o522 0.125762 1  dat1
o523 0.125596 1  dat1
o524 0.125428 1  dat1
o525 0.125258 1  dat1
o526 0.125085 1  dat1
o527 0.124911 1  dat1
o528 0.124735 1  dat1
o529 0.124557 1  dat1
o530 0.124377 1  dat1
o531 0.124195 1  dat1
o532 0.124011 1  dat1
o533 0.123825 1  dat1
o534 0.123637 1  dat1
o535 0.123447 1  dat1
o536 0.123254 1  dat1
o537 0.12306 1  dat1
o538 0.122864 1  dat1
o539 0.122665 1  dat1
o540 0.122464 1  dat1
o541 0.122261 1  dat1
o542 0.122056 1  dat1
o543 0.121849 1  dat1
o544 0.121639 1  dat1
o545 0.121428 1  dat1
o546 0.121214 1  dat1
o547 0.121096 1  dat1
o548 0.121064 1  dat1
o549 0.121032 1  dat1
o550 0.121017 1  dat1
o551 0.121012 1  dat1
o552 0.121014 1  dat1
o553 0.12102 1  dat1
o554 0.121031 1  dat1
o555 0.121045 1  dat1
o556 0.121061 1  dat1
o557 0.12108 1  dat1
o558 0.121102 1  dat1
o559 0.121125 1  dat1
o560 0.12115 1  dat1
o561 0.121176 1  dat1
o562 0.121205 1  dat1
o563 0.121234 1  dat1
o564 0.121265 1  dat1
o565 0.121296 1  dat1
o566 0.121329 1  dat1
o567 0.121363 1  dat1
o568 0.121398 1  dat1
o569 0.121434 1  dat1
o570 0.12147 1  dat1
o571 0.121508 1  dat1
o572 0.121546 1  dat1
o573 0.121585 1  dat1
o574 0.121625 1  dat1
o575 0.121665 1  dat1
o576 0.121706 1  dat1
o577 0.121747 1  dat1
o578 0.121789 1  dat1
o579 0.121832 1  dat1
o580 0.121875 1  dat1
o581 0.121919 1  dat1
o582 0.121963 1  dat1
o583 0.122008 1  dat1
o584 0.122053 1  dat1
o585 0.122099 1  dat1
o586 0.122145 1  dat1
o587 0.122192 1  dat1
o588 0.122239 1  dat1
o589 0.122286 1  dat1
o590 0.122334 1  dat1
o591 0.122382 1  dat1
o592 0.122431 1  dat1
o593 0.12248 1  dat1
o594 0.122529 1  dat1
o595 0.122579 1  dat1
o596 0.122629 1  dat1
o597 0.122679 1  dat1
o598 0.12273 1  dat1
o599 0.12278 1  dat1
o600 0.122832 1  dat1
o601 0.122883 1  dat1
o602 0.122935 1  dat1
o603 0.122987 1  dat1
o604 0.123039 1  dat1
o605 0.123092 1  dat1
o606 0.123145 1  dat1
o607 0.123198 1  dat1
o608 0.123252 1  dat1
o609 0.123305 1  dat1
o610 0.123359 1  dat1
o611 0.123414 1  dat1
o612 0.123468 1  dat1
o613 0.123523 1  dat1
o614 0.123578 1  dat1
o615 0.123633 1  dat1
o616 0.123688 1  dat1
o617 0.123744 1  dat1
o618 0.1238 1  dat1
o619 0.123856 1  dat1
o620 0.123912 1  dat1
o621 0.123968 1  dat1
o622 0.124025 1  dat1
o623 0.124082 1  dat1
o624 0.124139 1  dat1
o625 0.124196 1  dat1
o626 0.124254 1  dat1
o627 0.124311 1  dat1
o628 0.124369 1  dat1
o629 0.124427 1  dat1
o630 0.124485 1  dat1
o631 0.124544 1  dat1
o632 0.124602 1  dat1
o633 0.124661 1  dat1
o634 0.12472 1  dat1
o635 0.124779 1  dat1
o636 0.124839 1  dat1
o637 0.124898 1  dat1
o638 0.124958 1  dat1
o639 0.125017 1  dat1
o640 0.125077 1  dat1
o641 0.125138 1  dat1
o642 0.125198 1  dat1
o643 0.125258 1  dat1
o644 0.125319 1  dat1
o645 0.12538 1  dat1
o646 0.125441 1  dat1
o647 0.125502 1  dat1
o648 0.12555 1  dat1
o649 0.125586 1  dat1
o650 0.125796 1  dat1
o651 0.126025 1  dat1
o652 0.126263 1  dat1
o653 0.12651 1  dat1
o654 0.126762 1  dat1
o655 0.127019 1  dat1
o656 0.127282 1  dat1
o657 0.127548 1  dat1
o658 0.127818 1  dat1
o659 0.128093 1  dat1
o660 0.128371 1  dat1
o661 0.128652 1  dat1
o662 0.128937 1  dat1
o663 0.129225 1  dat1
o664 0.129516 1  dat1
o665 0.12981 1  dat1
o666 0.130108 1  dat1
o667 0.130408 1  dat1
o668 0.130711 1  dat1
o669 0.131018 1  dat1
o670 0.131327 1  dat1
o671 0.13164 1  dat1
o672 0.131955 1  dat1
o673 0.132272 1  dat1
o674 0.132594 1  dat1
o675 0.132917 1  dat1
o676 0.133244 1  dat1
o677 0.133574 1  dat1
o678 0.133906 1  dat1
o679 0.134241 1  dat1
o680 0.134579 1  dat1
o681 0.13492 1  dat1
o682 0.135263 1  dat1
o683 0.13561 1  dat1
o684 0.135959 1  dat1
o685 0.136311 1  dat1
o686 0.136666 1  dat1
o687 0.137024 1  dat1
o688 0.137385 1  dat1
o689 0.137748 1  dat1
o690 0.138115 1  dat1
o691 0.138484 1  dat1
o692 0.138857 1  dat1
o693 0.139232 1  dat1
o694 0.13961 1  dat1
o695 0.139991 1  dat1
o696 0.140375 1  dat1
o697 0.140762 1  dat1
o698 0.141152 1  dat1
o699 0.141545 1  dat1
o700 0.141941 1  dat1
o701 0.14234 1  dat1
o702 0.142742 1  dat1
o703 0.143146 1  dat1
o704 0.143555 1  dat1
o705 0.143966 1  dat1
o706 0.14438 1  dat1
o707 0.144797 1  dat1
o708 0.144976 1  dat1
o709 0.145337 1  dat1
o710 0.146014 1  dat1
o711 0.146715 1  dat1
o712 0.147434 1  dat1
o713 0.148166 1  dat1
o714 0.148909 1  dat1
o715 0.149664 1  dat1
o716 0.150429 1  dat1
o717 0.151203 1  dat1
o718 0.151986 1  dat1
o719 0.152778 1  dat1
o720 0.153579 1  dat1
o721 0.154388 1  dat1
o722 0.155206 1  dat1
o723 0.156032 1  dat1
o724 0.156866 1  dat1
o725 0.157708 1  dat1
o726 0.158558 1  dat1
o727 0.159417 1  dat1
o728 0.160283 1  dat1
o729 0.161158 1  dat1
o730 0.162039 1  dat1
o731 0.16293 1  dat1
o732 0.163828 1  dat1
o733 0.164733 1  dat1
o734 0.165646 1  dat1
o735 0.166569 1  dat1
o736 0.167498 1  dat1
o737 0.168435 1  dat1
o738 0.169381 1  dat1
o739 0.170334 1  dat1
o740 0.171296 1  dat1
o741 0.172265 1  dat1
o742 0.173243 1  dat1
o743 0.174229 1  dat1
o744 0.175223 1  dat1
o745 0.176225 1  dat1
o746 0.177235 1  dat1
o747 0.178254 1  dat1
o748 0.179281 1  dat1
o749 0.180316 1  dat1
o750 0.181359 1  dat1
o751 0.181392 1  dat1
o752 0.180927 1  dat1
o753 0.180181 1  dat1
o754 0.179329 1  dat1
o755 0.178406 1  dat1
o756 0.177428 1  dat1
o757 0.176404 1  dat1
o758 0.175341 1  dat1
o759 0.174241 1  dat1
o760 0.17311 1  dat1
o761 0.171948 1  dat1
o762 0.17076 1  dat1
o763 0.169544 1  dat1
o764 0.168304 1  dat1
o765 0.167039 1  dat1
o766 0.165751 1  dat1
o767 0.16444 1  dat1
o768 0.163107 1  dat1
o769 0.161753 1  dat1
o770 0.160378 1  dat1
o771 0.158983 1  dat1
o772 0.157566 1  dat1
o773 0.15613 1  dat1
o774 0.154675 1  dat1
o775 0.153199 1  dat1
o776 0.151705 1  dat1
o777 0.150192 1  dat1
o778 0.148659 1  dat1
o779 0.147108 1  dat1
o780 0.145537 1  dat1
o781 0.143948 1  dat1
o782 0.142341 1  dat1
o783 0.140715 1  dat1
o784 0.140221 1  dat1
o785 0.140356 1  dat1
o786 0.140891 1  dat1
o787 0.141571 1  dat1
o788 0.142337 1  dat1
o789 0.143167 1  dat1
o790 0.144048 1  dat1
o791 0.144971 1  dat1
o792 0.145932 1  dat1
o793 0.146926 1  dat1
o794 0.147949 1  dat1
o795 0.148999 1  dat1
o796 0.150075 1  dat1
o797 0.151174 1  dat1
o798 0.152296 1  dat1
o799 0.15344 1  dat1
o800 0.154604 1  dat1
o801 0.155788 1  dat1
o802 0.156991 1  dat1
o803 0.158212 1  dat1
o804 0.159452 1  dat1
o805 0.16071 1  dat1
o806 0.161984 1  dat1
o807 0.163276 1  dat1
o808 0.164583 1  dat1
o809 0.165908 1  dat1
o810 0.167249 1  dat1
o811 0.168155 1  dat1
o812 0.168318 1  dat1
o813 0.168598 1  dat1
o814 0.168787 1  dat1
o815 0.16893 1  dat1
o816 0.169043 1  dat1
o817 0.169133 1  dat1
o818 0.169207 1  dat1
o819 0.169266 1  dat1
o820 0.169313 1  dat1
o821 0.16935 1  dat1
o822 0.169379 1  dat1
o823 0.169399 1  dat1
o824 0.169413 1  dat1
o825 0.16942 1  dat1
o826 0.169421 1  dat1
o827 0.169417 1  dat1
o828 0.169409 1  dat1
o829 0.169395 1  dat1
o830 0.169377 1  dat1
o831 0.169355 1  dat1
o832 0.16933 1  dat1
o833 0.1693 1  dat1
o834 0.169269 1  dat1
o835 0.169285 1  dat1
o836 0.169996 1  dat1
o837 0.170816 1  dat1
o838 0.171682 1  dat1
o839 0.172581 1  dat1
o840 0.173506 1  dat1
o841 0.174452 1  dat1
o842 0.175417 1  dat1
o843 0.176399 1  dat1
o844 0.177398 1  dat1
o845 0.178411 1  dat1
o846 0.179439 1  dat1
o847 0.18048 1  dat1
o848 0.181535 1  dat1
o849 0.182602 1  dat1
o850 0.183682 1  dat1
o851 0.184774 1  dat1
o852 0.185878 1  dat1
o853 0.186994 1  dat1
o854 0.188122 1  dat1
o855 0.188432 1  dat1
o856 0.187746 1  dat1
o857 0.186432 1  dat1
o858 0.184958 1  dat1
o859 0.183384 1  dat1
o860 0.181734 1  dat1
o861 0.180019 1  dat1
o862 0.17825 1  dat1
o863 0.176434 1  dat1
o864 0.174572 1  dat1
o865 0.172669 1  dat1
o866 0.170729 1  dat1
o867 0.168752 1  dat1
o868 0.166739 1  dat1
o869 0.164693 1  dat1
o870 0.162615 1  dat1
o871 0.160505 1  dat1
o872 0.158364 1  dat1
o873 0.157701 1  dat1
o874 0.158154 1  dat1
o875 0.159299 1  dat1
o876 0.160649 1  dat1
o877 0.162124 1  dat1
o878 0.16369 1  dat1
o879 0.165329 1  dat1
o880 0.167029 1  dat1
o881 0.168782 1  dat1
o882 0.170583 1  dat1
o883 0.172427 1  dat1
o884 0.174311 1  dat1
o885 0.176233 1  dat1
o886 0.17819 1  dat1
o887 0.180181 1  dat1
o888 0.182203 1  dat1
o889 0.183319 1  dat1
o890 0.183244 1  dat1
o891 0.182635 1  dat1
o892 0.181831 1  dat1
o893 0.180919 1  dat1
o894 0.179933 1  dat1
o895 0.178888 1  dat1
o896 0.177796 1  dat1
o897 0.176662 1  dat1
o898 0.175492 1  dat1
o899 0.174289 1  dat1
o900 0.173057 1  dat1
o901 0.171796 1  dat1
o902 0.170509 1  dat1
o903 0.169198 1  dat1
o904 0.168762 1  dat1
o905 0.16961 1  dat1
o906 0.171323 1  dat1
o907 0.173229 1  dat1
o908 0.175253 1  dat1
o909 0.177365 1  dat1
o910 0.179548 1  dat1
o911 0.181792 1  dat1
o912 0.18409 1  dat1
o913 0.186436 1  dat1
o914 0.188828 1  dat1
o915 0.191262 1  dat1
o916 0.193736 1  dat1
o917 0.196025 1  dat1
o918 0.196067 1  dat1
o919 0.19573 1  dat1
o920 0.195062 1  dat1
o921 0.194253 1  dat1
o922 0.193351 1  dat1
o923 0.192379 1  dat1
o924 0.191352 1  dat1
o925 0.190278 1  dat1
o926 0.189163 1  dat1
o927 0.188011 1  dat1
o928 0.186827 1  dat1
o929 0.185611 1  dat1
o930 0.185008 1  dat1
o931 0.185247 1  dat1
o932 0.186028 1  dat1
o933 0.186942 1  dat1
o934 0.18793 1  dat1
o935 0.18897 1  dat1
o936 0.19005 1  dat1
o937 0.191163 1  dat1
o938 0.192305 1  dat1
o939 0.193472 1  dat1
o940 0.194662 1  dat1
o941 0.195873 1  dat1
o942 0.196124 1  dat1
o943 0.194034 1  dat1
o944 0.190776 1  dat1
o945 0.187254 1  dat1
o946 0.183556 1  dat1
o947 0.179724 1  dat1
o948 0.175781 1  dat1
o949 0.171738 1  dat1
o950 0.167607 1  dat1
o951 0.163394 1  dat1
o952 0.159106 1  dat1
o953 0.158313 1  dat1
o954 0.160318 1  dat1
o955 0.163825 1  dat1
o956 0.167758 1  dat1
o957 0.171958 1  dat1
o958 0.176359 1  dat1
o959 0.180923 1  dat1
o960 0.185625 1  dat1
o961 0.19045 1  dat1
o962 0.195386 1  dat1
o963 0.197976 1  dat1
o964 0.198312 1  dat1
o965 0.198228 1  dat1
o966 0.197827 1  dat1
o967 0.197261 1  dat1
o968 0.196588 1  dat1
o969 0.195835 1  dat1
o970 0.19502 1  dat1
o971 0.194153 1  dat1
o972 0.193243 1  dat1
o973 0.192977 1  dat1
o974 0.191214 1  dat1
o975 0.188469 1  dat1
o976 0.185578 1  dat1
o977 0.182583 1  dat1
o978 0.179502 1  dat1
o979 0.176346 1  dat1
o980 0.173123 1  dat1
o981 0.169837 1  dat1
o982 0.168003 1  dat1
o983 0.167095 1  dat1
o984 0.1653 1  dat1
o985 0.16358 1  dat1
o986 0.161885 1  dat1
o987 0.160199 1  dat1
o988 0.158512 1  dat1
o989 0.156821 1  dat1
o990 0.155122 1  dat1
o991 0.154491 1  dat1
o992 0.157055 1  dat1
o993 0.162115 1  dat1
o994 0.167627 1  dat1
o995 0.173426 1  dat1
o996 0.179443 1  dat1
o997 0.185642 1  dat1
o998 0.191999 1  dat1
o999 0.197106 1  dat1
o1000 0.197297 1  dat1
o1001 0.196792 1  dat1
o1002 0.19569 1  dat1
o1003 0.194318 1  dat1
o1004 0.192773 1  dat1
o1005 0.191102 1  dat1
o1006 0.189332 1  dat1
o1007 0.187774 1  dat1
o1008 0.187949 1  dat1
o1009 0.189923 1  dat1
o1010 0.192255 1  dat1
o1011 0.194749 1  dat1
o1012 0.197349 1  dat1
o1013 0.20003 1  dat1
o1014 0.202778 1  dat1
o1015 0.204376 1  dat1
o1016 0.203503 1  dat1
o1017 0.200549 1  dat1
o1018 0.197179 1  dat1
o1019 0.193577 1  dat1
o1020 0.189808 1  dat1
o1021 0.185904 1  dat1
o1022 0.181885 1  dat1
* model command line 
./wells linear >& /dev/null
* model input/output
linear.tpl linear.wells
linear.inst linear.s_point
