pcf
* control data
restart  estimation
2    4951     1     0   1
1     1 single point  1  0  0
5.0   2.0   0.3  0.03    10
5.0   5.0 0.001
0.1
50  0.01     9     9  0.01     9
1     1     1
* group definitions and derivative data
par  relative 0.01  0.01  always_3  2.0 parabolic
* parameter data
k    none  relative    1.0000     -10   10 par  1.0000  0.00  1
S    none  relative    1.0000     -10   10 par  1.0000  0.00  1
* observation groups
obs
* observation data
o1 0 1 obs
o2 5.98511376 1 obs
o3 8.023152254 1 obs
o4 8.674032233 1 obs
o5 8.970547769 1 obs
o6 9.144774497 1 obs
o7 9.253036409 1 obs
o8 9.319347478 1 obs
o9 9.376030219 1 obs
o10 9.411309295 1 obs
o11 9.454564987 1 obs
o12 9.481477303 1 obs
o13 9.511722912 1 obs
o14 9.537635484 1 obs
o15 9.552695957 1 obs
o16 9.579276955 1 obs
o17 9.593825974 1 obs
o18 9.614616686 1 obs
o19 9.629166924 1 obs
o20 9.638577014 1 obs
o21 9.657038446 1 obs
o22 9.673796959 1 obs
o23 9.685835645 1 obs
o24 9.695001286 1 obs
o25 9.705873806 1 obs
o26 9.714897715 1 obs
o27 9.725112173 1 obs
o28 9.737813798 1 obs
o29 9.742260221 1 obs
o30 9.754953617 1 obs
o31 9.764263428 1 obs
o32 9.771847766 1 obs
o33 9.782713277 1 obs
o34 9.846740784 1 obs
o35 9.822908777 1 obs
o36 9.823172429 1 obs
o37 9.818722958 1 obs
o38 9.828411941 1 obs
o39 9.833118358 1 obs
o40 9.83953897 1 obs
o41 9.846056203 1 obs
o42 9.84936054 1 obs
o43 9.862845806 1 obs
o44 9.86677224 1 obs
o45 9.876194827 1 obs
o46 9.875935747 1 obs
o47 9.886107228 1 obs
o48 9.88064826 1 obs
o49 9.887712914 1 obs
o50 9.905390705 1 obs
o51 9.903825862 1 obs
o52 9.910896307 1 obs
o53 9.910896307 1 obs
o54 9.918750394 1 obs
o55 9.926603566 1 obs
o56 9.930003305 1 obs
o57 9.932757782 1 obs
o58 9.938649262 1 obs
o59 9.945977873 1 obs
o60 9.94284209 1 obs
o61 9.946239391 1 obs
o62 9.951739202 1 obs
o63 9.95540869 1 obs
o64 9.962206034 1 obs
o65 9.95972923 1 obs
o66 9.961165447 1 obs
o67 9.965880094 1 obs
o68 9.979888702 1 obs
o69 9.971376247 1 obs
o70 9.984675586 1 obs
o71 9.978444559 1 obs
o72 9.985518358 1 obs
o73 9.986306875 1 obs
o74 9.99743299 1 obs
o75 9.988398413 1 obs
o76 9.992849407 1 obs
o77 9.998679317 1 obs
o78 10.00902057 1 obs
o79 10.00934031 1 obs
o80 10.00816713 1 obs
o81 10.0187699 1 obs
o82 10.02427673 1 obs
o83 10.02139423 1 obs
o84 10.02825894 1 obs
o85 10.0359271 1 obs
o86 10.0292471 1 obs
o87 10.03487249 1 obs
o88 10.03643642 1 obs
o89 10.04697762 1 obs
o90 10.04639393 1 obs
o91 10.04364524 1 obs
o92 10.05778369 1 obs
o93 10.05307728 1 obs
o94 10.04574501 1 obs
o95 10.04967266 1 obs
o96 10.05844206 1 obs
o97 10.05739446 1 obs
o98 10.05700127 1 obs
o99 10.06263367 1 obs
o100 10.06734375 1 obs
o101 10.07127963 1 obs
o102 10.07800352 1 obs
o103 10.08515321 1 obs
o104 10.08436012 1 obs
o105 10.08541229 1 obs
o106 10.0919597 1 obs
o107 10.09169452 1 obs
o108 10.09615253 1 obs
o109 10.09313867 1 obs
o110 10.09654298 1 obs
o111 10.10046972 1 obs
o112 10.10718659 1 obs
o113 10.10387067 1 obs
o114 10.11709869 1 obs
o115 10.11683595 1 obs
o116 10.1132957 1 obs
o117 10.11631048 1 obs
o118 10.12547612 1 obs
o119 10.1249482 1 obs
o120 10.13215246 1 obs
o121 10.13229084 1 obs
o122 10.13189429 1 obs
o123 10.12992833 1 obs
o124 10.13018406 1 obs
o125 10.14197159 1 obs
o126 10.13424552 1 obs
o127 10.14132054 1 obs
o128 10.14668532 1 obs
o129 10.14734003 1 obs
o130 10.14943401 1 obs
o131 10.15755571 1 obs
o132 10.15309648 1 obs
o133 10.16553903 1 obs
o134 10.15885903 1 obs
o135 10.15820676 1 obs
o136 10.16724225 1 obs
o137 10.16933623 1 obs
o138 10.1740524 1 obs
o139 10.17653469 1 obs
o140 10.17535694 1 obs
o141 10.18111919 1 obs
o142 10.18714112 1 obs
o143 10.18216221 1 obs
o144 10.18844902 1 obs
o145 10.18792811 1 obs
o146 10.19094076 1 obs
o147 10.19892408 1 obs
o148 10.19577671 1 obs
o149 10.20245976 1 obs
o150 10.19762167 1 obs
o151 10.20415749 1 obs
o152 10.2087362 1 obs
o153 10.21175707 1 obs
o154 10.2168579 1 obs
o155 10.2186867 1 obs
o156 10.22000526 1 obs
o157 10.21594502 1 obs
o158 10.22092149 1 obs
o159 10.22891061 1 obs
o160 10.23138954 1 obs
o161 10.2282559 1 obs
o162 10.23165472 1 obs
o163 10.23401387 1 obs
o164 10.23990657 1 obs
o165 10.24527349 1 obs
o166 10.24815476 1 obs
o167 10.24344469 1 obs
o168 10.24421766 1 obs
o169 10.24553409 1 obs
o170 10.26189942 1 obs
o171 10.2654351 1 obs
o172 10.26321097 1 obs
o173 10.25862038 1 obs
o174 10.26883849 1 obs
o175 10.27355802 1 obs
o176 10.28167027 1 obs
o177 10.27642527 1 obs
o178 10.28691161 1 obs
o179 10.28507824 1 obs
o180 10.28520595 1 obs
o181 10.29240441 1 obs
o182 10.28978709 1 obs
o183 10.28913025 1 obs
o184 10.29646709 1 obs
o185 10.30104457 1 obs
o186 10.30183401 1 obs
o187 10.30772427 1 obs
o188 10.3140065 1 obs
o189 10.3175437 1 obs
o190 10.31348224 1 obs
o191 10.32539657 1 obs
o192 10.32578946 1 obs
o193 10.32788465 1 obs
o194 10.32618722 1 obs
o195 10.33417176 1 obs
o196 10.33953746 1 obs
o197 10.33823078 1 obs
o198 10.34608243 1 obs
o199 10.34346298 1 obs
o200 10.34804748 1 obs
o201 10.34582091 1 obs
o202 10.33312386 1 obs
o203 10.33902144 1 obs
o204 10.34216423 1 obs
o205 10.34752444 1 obs
o206 10.35250548 1 obs
o207 10.35577507 1 obs
o208 10.35787027 1 obs
o209 10.35799798 1 obs
o210 10.35930618 1 obs
o211 10.36782077 1 obs
o212 10.3666418 1 obs
o213 10.36415128 1 obs
o214 10.36755925 1 obs
o215 10.37030885 1 obs
o216 10.38039316 1 obs
o217 10.37738539 1 obs
o218 10.3891589 1 obs
o219 10.38954966 1 obs
o220 10.39192496 1 obs
o221 10.39020315 1 obs
o222 10.40212448 1 obs
o223 10.261505 1 obs
o224 10.21175707 1 obs
o225 10.20258777 1 obs
o226 10.27223701 1 obs
o227 10.33286021 1 obs
o228 10.36258278 1 obs
o229 10.3851139 1 obs
o230 10.37148568 1 obs
o231 10.39387842 1 obs
o232 10.41770616 1 obs
o233 10.43145295 1 obs
o234 10.4435023 1 obs
o235 10.45580616 1 obs
o236 10.45920468 1 obs
o237 10.46955508 1 obs
o238 10.47072826 1 obs
o239 10.47465622 1 obs
o240 10.47754206 1 obs
o241 10.48684029 1 obs
o242 10.48905741 1 obs
o243 10.49273055 1 obs
o244 10.49744063 1 obs
o245 10.50399139 1 obs
o246 10.50048131 1 obs
o247 10.51013981 1 obs
o248 10.51080031 1 obs
o249 10.51236546 1 obs
o250 10.51249317 1 obs
o251 10.52375767 1 obs
o252 10.51891257 1 obs
o253 10.51419548 1 obs
o254 10.51092833 1 obs
o255 10.52100685 1 obs
o256 10.52585652 1 obs
o257 10.51459904 1 obs
o258 10.52335899 1 obs
o259 10.53737308 1 obs
o260 10.53475485 1 obs
o261 10.53816038 1 obs
o262 10.53501637 1 obs
o263 10.53606275 1 obs
o264 10.54287625 1 obs
o265 10.53794184 1 obs
o266 10.54378333 1 obs
o267 10.54469956 1 obs
o268 10.54601691 1 obs
o269 10.54929564 1 obs
o270 10.55138382 1 obs
o271 10.54771891 1 obs
o272 10.54824347 1 obs
o273 10.55793245 1 obs
o274 10.5567986 1 obs
o275 10.56434819 1 obs
o276 10.55700921 1 obs
o277 10.55531392 1 obs
o278 10.55570223 1 obs
o279 10.55439525 1 obs
o280 10.55806382 1 obs
o281 10.55845671 1 obs
o282 10.56355754 1 obs
o283 10.56997571 1 obs
o284 10.56512848 1 obs
o285 10.5663108 1 obs
o286 10.57364306 1 obs
o287 10.56538786 1 obs
o288 10.5787509 1 obs
o289 10.58032398 1 obs
o290 10.5885676 1 obs
o291 10.58136121 1 obs
o292 10.58490177 1 obs
o293 10.59524637 1 obs
o294 10.58464817 1 obs
o295 10.58830272 1 obs
o296 10.59681244 1 obs
o297 10.59249769 1 obs
o298 10.58726427 1 obs
o299 10.58692137 1 obs
o300 10.59092096 1 obs
o301 10.58830272 1 obs
o302 10.5853483 1 obs
o303 10.59406741 1 obs
o304 10.59019096 1 obs
o305 10.59904388 1 obs
o306 10.60021705 1 obs
o307 10.60507008 1 obs
o308 10.60519687 1 obs
o309 10.59904388 1 obs
o310 10.60192271 1 obs
o311 10.61331858 1 obs
o312 10.60296909 1 obs
o313 10.60532702 1 obs
o314 10.60480521 1 obs
o315 10.60651087 1 obs
o316 10.6138407 1 obs
o317 10.61213839 1 obs
o318 10.61317776 1 obs
o319 10.61763576 1 obs
o320 10.61030014 1 obs
o321 10.61593345 1 obs
o322 10.61842184 1 obs
o323 10.62287375 1 obs
o324 10.6189461 1 obs
o325 10.62051704 1 obs
o326 10.62234584 1 obs
o327 10.62038445 1 obs
o328 10.62614913 1 obs
o329 10.62627471 1 obs
o330 10.61978917 1 obs
o331 10.62352267 1 obs
o332 10.62352267 1 obs
o333 10.62745154 1 obs
o334 10.62221904 1 obs
o335 10.62352267 1 obs
o336 10.6298174 1 obs
o337 10.63059525 1 obs
o338 10.62771641 1 obs
o339 10.62955588 1 obs
o340 10.6319068 1 obs
o341 10.63517761 1 obs
o342 10.63615785 1 obs
o343 10.63832162 1 obs
o344 10.64356083 1 obs
o345 10.6451272 1 obs
o346 10.63767057 1 obs
o347 10.63517761 1 obs
o348 10.6317733 1 obs
o349 10.64042139 1 obs
o350 10.62594552 1 obs
o351 10.63059525 1 obs
o352 10.63583446 1 obs
o353 10.64251201 1 obs
o354 10.63767057 1 obs
o355 10.64277841 1 obs
o356 10.64192253 1 obs
o357 10.63891355 1 obs
o358 10.64113432 1 obs
o359 10.64722239 1 obs
o360 10.64460965 1 obs
o361 10.6537695 1 obs
o362 10.65069772 1 obs
o363 10.64578526 1 obs
o364 10.64552344 1 obs
o365 10.64768965 1 obs
o366 10.65567054 1 obs
o367 10.65435898 1 obs
o368 10.66025625 1 obs
o369 10.65946804 1 obs
o370 10.6660758 1 obs
o371 10.65488446 1 obs
o372 10.6580937 1 obs
o373 10.65816349 1 obs
o374 10.66052143 1 obs
o375 10.6586844 1 obs
o376 10.662869 1 obs
o377 10.65567054 1 obs
o378 10.66195734 1 obs
o379 10.66654793 1 obs
o380 10.65515207 1 obs
o381 10.65344641 1 obs
o382 10.65474852 1 obs
o383 10.66221551 1 obs
o384 10.65567054 1 obs
o385 10.65750299 1 obs
o386 10.66116669 1 obs
o387 10.66025625 1 obs
o388 10.65894592 1 obs
o389 10.67432521 1 obs
o390 10.66326432 1 obs
o391 10.66510714 1 obs
o392 10.6675873 1 obs
o393 10.66797562 1 obs
o394 10.6624819 1 obs
o395 10.66025625 1 obs
o396 10.67301823 1 obs
o397 10.67335076 1 obs
o398 10.66797562 1 obs
o399 10.67636127 1 obs
o400 10.67964245 1 obs
o401 10.66929418 1 obs
o402 10.66745928 1 obs
o403 10.66536196 1 obs
o404 10.66339813 1 obs
o405 10.66510714 1 obs
o406 10.6719115 1 obs
o407 10.67125801 1 obs
o408 10.67976802 1 obs
o409 10.67085689 1 obs
o410 10.67766704 1 obs
o411 10.67649386 1 obs
o412 10.67439867 1 obs
o413 10.68016335 1 obs
o414 10.67518566 1 obs
o415 10.66864313 1 obs
o416 10.68238991 1 obs
o417 10.68330492 1 obs
o418 10.68121308 1 obs
o419 10.68579331 1 obs
o420 10.67766704 1 obs
o421 10.68370269 1 obs
o422 10.6838874 1 obs
o423 10.68029685 1 obs
o424 10.68435374 1 obs
o425 10.67885515 1 obs
o426 10.6838304 1 obs
o427 10.68238991 1 obs
o428 10.69142205 1 obs
o429 10.69365075 1 obs
o430 10.6925998 1 obs
o431 10.68854291 1 obs
o432 10.69325664 1 obs
o433 10.68920006 1 obs
o434 10.6925998 1 obs
o435 10.69038116 1 obs
o436 10.69338801 1 obs
o437 10.68985568 1 obs
o438 10.68893732 1 obs
o439 10.68684182 1 obs
o440 10.68998248 1 obs
o441 10.69770764 1 obs
o442 10.69273574 1 obs
o443 10.70006557 1 obs
o444 10.6894628 1 obs
o445 10.69234163 1 obs
o446 10.69325664 1 obs
o447 10.70228756 1 obs
o448 10.69561579 1 obs
o449 10.6916857 1 obs
o450 10.69038116 1 obs
o451 10.69299055 1 obs
o452 10.6974449 1 obs
o453 10.69784358 1 obs
o454 10.69613548 1 obs
o455 10.69679263 1 obs
o456 10.69848884 1 obs
o457 10.70268502 1 obs
o458 10.70190961 1 obs
o459 10.70268502 1 obs
o460 10.70124454 1 obs
o461 10.69483093 1 obs
o462 10.69600899 1 obs
o463 10.70635481 1 obs
o464 10.70386307 1 obs
o465 10.70085165 1 obs
o466 10.70124454 1 obs
o467 10.70202818 1 obs
o468 10.70452236 1 obs
o469 10.7046525 1 obs
o470 10.71015201 1 obs
o471 10.69561579 1 obs
o472 10.69784358 1 obs
o473 10.70622344 1 obs
o474 10.71486574 1 obs
o475 10.7126404 1 obs
o476 10.70648618 1 obs
o477 10.70243051 1 obs
o478 10.70216534 1 obs
o479 10.70752677 1 obs
o480 10.70412459 1 obs
o481 10.7050396 1 obs
o482 10.70412459 1 obs
o483 10.70438733 1 obs
o484 10.70871518 1 obs
o485 10.69901553 1 obs
o486 10.71007185 1 obs
o487 10.70962654 1 obs
o488 10.7017691 1 obs
o489 10.69941452 1 obs
o490 10.70346988 1 obs
o491 10.7067477 1 obs
o492 10.70687663 1 obs
o493 10.70386307 1 obs
o494 10.70163864 1 obs
o495 10.70595949 1 obs
o496 10.71433783 1 obs
o497 10.7110719 1 obs
o498 10.71093352 1 obs
o499 10.70412459 1 obs
o500 10.71184731 1 obs
o501 10.71669607 1 obs
o502 10.71723069 1 obs
o503 10.71578075 1 obs
o504 10.7125136 1 obs
o505 10.71460087 1 obs
o506 10.72494883 1 obs
o507 10.71552381 1 obs
o508 10.71513092 1 obs
o509 10.71146478 1 obs
o510 10.71749129 1 obs
o511 10.72586171 1 obs
o512 10.71198691 1 obs
o513 10.71277421 1 obs
o514 10.70989171 1 obs
o515 10.72010373 1 obs
o516 10.71853066 1 obs
o517 10.72324439 1 obs
o518 10.71407875 1 obs
o519 10.71564847 1 obs
o520 10.72220015 1 obs
o521 10.73437508 1 obs
o522 10.73411691 1 obs
o523 10.72704525 1 obs
o524 10.72834857 1 obs
o525 10.73411691 1 obs
o526 10.73516939 1 obs
o527 10.73778884 1 obs
o528 10.73817837 1 obs
o529 10.73280901 1 obs
o530 10.72953699 1 obs
o531 10.73464025 1 obs
o532 10.7470767 1 obs
o533 10.73660286 1 obs
o534 10.73228567 1 obs
o535 10.74420244 1 obs
o536 10.74603246 1 obs
o537 10.74800208 1 obs
o538 10.74525339 1 obs
o539 10.74459533 1 obs
o540 10.74642778 1 obs
o541 10.74891373 1 obs
o542 10.74472913 1 obs
o543 10.74857205 1 obs
o544 10.75009392 1 obs
o545 10.75061726 1 obs
o546 10.74568499 1 obs
o547 10.75061726 1 obs
o548 10.75969207 1 obs
o549 10.7498766 1 obs
o550 10.74250257 1 obs
o551 10.74852298 1 obs
o552 10.75494237 1 obs
o553 10.74982752 1 obs
o554 10.74878358 1 obs
o555 10.74550698 1 obs
o556 10.7482639 1 obs
o557 10.75376005 1 obs
o558 10.75506582 1 obs
o559 10.75389264 1 obs
o560 10.75284504 1 obs
o561 10.74878358 1 obs
o562 10.75376005 1 obs
o563 10.75925956 1 obs
o564 10.76305706 1 obs
o565 10.75219033 1 obs
o566 10.74930327 1 obs
o567 10.75756091 1 obs
o568 10.75702964 1 obs
o569 10.76017823 1 obs
o570 10.75192759 1 obs
o571 10.74982752 1 obs
o572 10.7561192 1 obs
o573 10.7573003 1 obs
o574 10.7697776 1 obs
o575 10.76017823 1 obs
o576 10.75532977 1 obs
o577 10.76437105 1 obs
o578 10.76673021 1 obs
o579 10.77287985 1 obs
o580 10.75939093 1 obs
o581 10.75925956 1 obs
o582 10.77301579 1 obs
o583 10.7735367 1 obs
o584 10.77065085 1 obs
o585 10.76109781 1 obs
o586 10.76048272 1 obs
o587 10.76201068 1 obs
o588 10.77052161 1 obs
o589 10.77130647 1 obs
o590 10.76593712 1 obs
o591 10.7696066 1 obs
o592 10.76973675 1 obs
o593 10.77261681 1 obs
o594 10.76907991 1 obs
o595 10.76463135 1 obs
o596 10.76633701 1 obs
o597 10.7782422 1 obs
o598 10.77812241 1 obs
o599 10.76803932 1 obs
o600 10.77606318 1 obs
o601 10.7655488 1 obs
o602 10.77301579 1 obs
o603 10.77523992 1 obs
o604 10.76738004 1 obs
o605 10.7735367 1 obs
o606 10.76463135 1 obs
o607 10.76869038 1 obs
o608 10.76397664 1 obs
o609 10.76070492 1 obs
o610 10.76083294 1 obs
o611 10.76109781 1 obs
o612 10.7744575 1 obs
o613 10.76947402 1 obs
o614 10.77314015 1 obs
o615 10.77379943 1 obs
o616 10.7732703 1 obs
o617 10.7701333 1 obs
o618 10.78296507 1 obs
o619 10.77812241 1 obs
o620 10.76921372 1 obs
o621 10.77733542 1 obs
o622 10.78322568 1 obs
o623 10.77759907 1 obs
o624 10.76711608 1 obs
o625 10.77995365 1 obs
o626 10.78584391 1 obs
o627 10.77942696 1 obs
o628 10.76881961 1 obs
o629 10.78414892 1 obs
o630 10.78755079 1 obs
o631 10.77497505 1 obs
o632 10.77419141 1 obs
o633 10.7778551 1 obs
o634 10.77536671 1 obs
o635 10.77733542 1 obs
o636 10.77903407 1 obs
o637 10.78493134 1 obs
o638 10.78584391 1 obs
o639 10.78688815 1 obs
o640 10.78912173 1 obs
o641 10.78951248 1 obs
o642 10.83233902 1 obs
o643 10.81243649 1 obs
o644 10.80430808 1 obs
o645 10.80430808 1 obs
o646 10.79946542 1 obs
o647 10.80601496 1 obs
o648 10.79750952 1 obs
o649 10.79448895 1 obs
o650 10.79567005 1 obs
o651 10.79318532 1 obs
o652 10.80129879 1 obs
o653 10.80692754 1 obs
o654 10.78532423 1 obs
o655 10.79056221 1 obs
o656 10.79880949 1 obs
o657 10.7929238 1 obs
o658 10.79265771 1 obs
o659 10.79841874 1 obs
o660 10.800385 1 obs
o661 10.80392556 1 obs
o662 10.3168832 1 obs
o663 8.488949443 1 obs
o664 7.504030306 1 obs
o665 6.858910438 1 obs
o666 6.388834466 1 obs
o667 6.023766058 1 obs
o668 5.728872362 1 obs
o669 5.49118475 1 obs
o670 5.293681666 1 obs
o671 5.122747997 1 obs
o672 4.974336 1 obs
o673 4.854966566 1 obs
o674 4.740712896 1 obs
o675 4.644005038 1 obs
o676 4.562724022 1 obs
o677 4.492186291 1 obs
o678 4.433038937 1 obs
o679 4.378332823 1 obs
o680 4.330561214 1 obs
o681 4.28332453 1 obs
o682 4.243406093 1 obs
o683 4.20218555 1 obs
o684 4.165020372 1 obs
o685 4.133733871 1 obs
o686 4.105733114 1 obs
o687 4.075765178 1 obs
o688 4.05168293 1 obs
o689 4.02198017 1 obs
o690 3.995679588 1 obs
o691 3.970553095 1 obs
o692 3.954728489 1 obs
o693 3.926974315 1 obs
o694 3.9040689 1 obs
o695 3.887325626 1 obs
o696 3.870049867 1 obs
o697 3.854246292 1 obs
o698 3.835624231 1 obs
o699 3.816525158 1 obs
o700 3.799642591 1 obs
o701 3.7902642 1 obs
o702 3.770072419 1 obs
o703 3.754501102 1 obs
o704 3.743764522 1 obs
o705 3.728463257 1 obs
o706 3.716147813 1 obs
o707 3.699927576 1 obs
o708 3.689328461 1 obs
o709 3.687686503 1 obs
o710 3.668652962 1 obs
o711 3.657007164 1 obs
o712 3.64901927 1 obs
o713 3.639863993 1 obs
o714 3.627827441 1 obs
o715 3.617881512 1 obs
o716 3.615863126 1 obs
o717 3.600480175 1 obs
o718 3.59106216 1 obs
o719 3.57730745 1 obs
o720 3.568559081 1 obs
o721 3.561219802 1 obs
o722 3.561961685 1 obs
o723 3.554764442 1 obs
o724 3.536874816 1 obs
o725 3.530077776 1 obs
o726 3.51763645 1 obs
o727 3.514987738 1 obs
o728 3.5027235 1 obs
o729 3.494347291 1 obs
o730 3.489377832 1 obs
o731 3.479034139 1 obs
o732 3.472234661 1 obs
o733 3.467523367 1 obs
o734 3.461372503 1 obs
o735 3.449856854 1 obs
o736 3.449963839 1 obs
o737 3.442143586 1 obs
o738 3.43428127 1 obs
o739 3.430102462 1 obs
o740 3.417933322 1 obs
o741 3.418695931 1 obs
o742 3.412552382 1 obs
o743 3.39987636 1 obs
o744 3.40051583 1 obs
o745 3.393448738 1 obs
o746 3.387437472 1 obs
o747 3.377238254 1 obs
o748 3.374875445 1 obs
o749 3.369108324 1 obs
o750 3.368594431 1 obs
o751 3.362962337 1 obs
o752 3.362441434 1 obs
o753 3.351325682 1 obs
o754 3.345302834 1 obs
o755 3.33810102 1 obs
o756 3.331824578 1 obs
o757 3.337068358 1 obs
o758 3.333531458 1 obs
o759 3.325936452 1 obs
o760 3.317955569 1 obs
o761 3.308800291 1 obs
o762 3.311158529 1 obs
o763 3.303033475 1 obs
o764 3.296622007 1 obs
o765 3.292434055 1 obs
o766 3.289176048 1 obs
o767 3.287203992 1 obs
o768 3.281058005 1 obs
o769 3.277653389 1 obs
o770 3.274897997 1 obs
o771 3.275051311 1 obs
o772 3.272958554 1 obs
o773 3.266528494 1 obs
o774 3.256587442 1 obs
o775 3.25515732 1 obs
o776 3.254250235 1 obs
o777 3.246111161 1 obs
o778 3.249406354 1 obs
o779 3.243388078 1 obs
o780 3.237481663 1 obs
o781 3.233551572 1 obs
o782 3.23907211 1 obs
o783 3.226226314 1 obs
o784 3.232263182 1 obs
o785 3.225982169 1 obs
o786 3.2284797 1 obs
o787 3.219185129 1 obs
o788 3.218661787 1 obs
o789 3.214864284 1 obs
o790 3.211597133 1 obs
o791 3.211199369 1 obs
o792 3.209111184 1 obs
o793 3.203483662 1 obs
o794 3.201655776 1 obs
o795 3.197604984 1 obs
o796 3.192500498 1 obs
o797 3.19550034 1 obs
o798 3.183180324 1 obs
o799 3.184903358 1 obs
o800 3.182815174 1 obs
o801 3.180459374 1 obs
o802 3.184903358 1 obs
o803 3.175487782 1 obs
o804 3.17587823 1 obs
o805 3.172483063 1 obs
o806 3.164862758 1 obs
o807 3.169343928 1 obs
o808 3.168948602 1 obs
o809 3.16358839 1 obs
o810 3.159918902 1 obs
o811 3.159918902 1 obs
o812 3.158095589 1 obs
o813 3.15599826 1 obs
o814 3.152200757 1 obs
o815 3.150889202 1 obs
o816 3.153514445 1 obs
o817 3.149456642 1 obs
o818 3.146842982 1 obs
o819 3.144224446 1 obs
o820 3.144089419 1 obs
o821 3.142657164 1 obs
o822 3.138724634 1 obs
o823 3.135192307 1 obs
o824 3.136629439 1 obs
o825 3.13217875 1 obs
o826 3.132836813 1 obs
o827 3.129834533 1 obs
o828 3.127479038 1 obs
o829 3.125911452 1 obs
o830 3.124595326 1 obs
o831 3.125246378 1 obs
o832 3.120404935 1 obs
o833 3.122504702 1 obs
o834 3.114140076 1 obs
o835 3.11360759 1 obs
o836 3.114014803 1 obs
o837 3.112163753 1 obs
o838 3.108117228 1 obs
o839 3.108235795 1 obs
o840 3.101917596 1 obs
o841 3.104059426 1 obs
o842 3.09935057 1 obs
o843 3.096597007 1 obs
o844 3.100792274 1 obs
o845 3.096469296 1 obs
o846 3.09078569 1 obs
o847 3.090971923 1 obs
o848 3.083730485 1 obs
o849 3.087446606 1 obs
o850 3.084304728 1 obs
o851 3.076530804 1 obs
o852 3.082735313 1 obs
o853 3.078554066 1 obs
o854 3.07671917 1 obs
o855 3.07246843 1 obs
o856 3.068296632 1 obs
o857 3.069987053 1 obs
o858 3.072273053 1 obs
o859 3.070433585 1 obs
o860 3.070177858 1 obs
o861 3.067945502 1 obs
o862 3.067822058 1 obs
o863 3.05886673 1 obs
o864 3.064557346 1 obs
o865 3.059194694 1 obs
o866 3.059383061 1 obs
o867 3.06102258 1 obs
o868 3.05193253 1 obs
o869 3.057099499 1 obs
o870 3.055522769 1 obs
o871 3.053304434 1 obs
o872 3.047220931 1 obs
o873 3.048402336 1 obs
o874 3.04708621 1 obs
o875 3.05119979 1 obs
o876 3.041070372 1 obs
o877 3.045588727 1 obs
o878 3.046765255 1 obs
o879 3.042702576 1 obs
o880 3.04126331 1 obs
o881 3.03714973 1 obs
o882 3.034528754 1 obs
o883 3.038770351 1 obs
o884 3.032698735 1 obs
o885 3.028113019 1 obs
o886 3.031512758 1 obs
o887 3.02588737 1 obs
o888 3.030010399 1 obs
o889 3.025496921 1 obs
o890 3.022090171 1 obs
o891 3.021313236 1 obs
o892 3.027522317 1 obs
o893 3.025436266 1 obs
o894 3.020655173 1 obs
o895 3.022692456 1 obs
o896 3.018952865 1 obs
o897 3.016464782 1 obs
o898 3.013069615 1 obs
o899 3.021380902 1 obs
o900 3.011900098 1 obs
o901 3.011627911 1 obs
o902 3.008883797 1 obs
o903 3.008218723 1 obs
o904 3.00835375 1 obs
o905 3.004174942 1 obs
o906 3.0092142 1 obs
o907 3.00456539 1 obs
o908 3.009346483 1 obs
o909 2.999989123 1 obs
o910 3.001161079 1 obs
o911 2.999716937 1 obs
o912 2.995403407 1 obs
o913 3.003198058 1 obs
o914 2.995140365 1 obs
o915 2.99370811 1 obs
o916 2.99370811 1 obs
o917 2.992917458 1 obs
o918 2.990691809 1 obs
o919 2.997437947 1 obs
o920 2.990298922 1 obs
o921 2.989122394 1 obs
o922 2.993512733 1 obs
o923 2.993512733 1 obs
o924 2.983629593 1 obs
o925 2.985587628 1 obs
o926 2.981285681 1 obs
o927 2.984675971 1 obs
o928 2.984138914 1 obs
o929 2.983629593 1 obs
o930 2.984675971 1 obs
o931 2.978657695 1 obs
o932 2.977732322 1 obs
o933 2.975646271 1 obs
o934 2.979827518 1 obs
o935 2.975118358 1 obs
o936 2.973028039 1 obs
o937 2.97224897 1 obs
o938 2.976950815 1 obs
o939 2.970416513 1 obs
o940 2.968707194 1 obs
o941 2.970018749 1 obs
o942 2.968974809 1 obs
o943 2.965314466 1 obs
o944 2.96648185 1 obs
o945 2.966093534 1 obs
o946 2.964393665 1 obs
o947 2.96734931 1 obs
o948 2.9630751 1 obs
o949 2.961377364 1 obs
o950 2.965960946 1 obs
o951 2.96006581 1 obs
o952 2.95837295 1 obs
o953 2.966818958 1 obs
o954 2.963605147 1 obs
o955 2.959684505 1 obs
o956 2.954708035 1 obs
o957 2.959426339 1 obs
o958 2.957717326 1 obs
o959 2.95495919 1 obs
o960 2.95431271 1 obs
o961 2.953005727 1 obs
o962 2.950784954 1 obs
o963 2.952610402 1 obs
o964 2.951692039 1 obs
o965 2.950133902 1 obs
o966 2.945029721 1 obs
o967 2.943190253 1 obs
o968 2.939397322 1 obs
o969 2.941890281 1 obs
o970 2.942143874 1 obs
o971 2.94267636 1 obs
o972 2.942011286 1 obs
o973 2.940185839 1 obs
o974 2.942143874 1 obs
o975 2.938885867 1 obs
o976 2.939527776 1 obs
o977 2.938885867 1 obs
o978 2.935476679 1 obs
o979 2.935341958 1 obs
o980 2.93769989 1 obs
o981 2.937041827 1 obs
o982 2.936523058 1 obs
o983 2.934823188 1 obs
o984 2.932597843 1 obs
o985 2.92893049 1 obs
o986 2.931153701 1 obs
o987 2.93037707 1 obs
o988 2.928672629 1 obs
o989 2.929977173 1 obs
o990 2.927753962 1 obs
o991 2.930504782 1 obs
o992 2.928795768 1 obs
o993 2.92448681 1 obs
o994 2.924089046 1 obs
o995 2.928142277 1 obs
o996 2.926051654 1 obs
o997 2.924619094 1 obs
o998 2.926051654 1 obs
o999 2.921600964 1 obs
o1000 2.922649476 1 obs
o1001 2.925658766 1 obs
o1002 2.919389335 1 obs
o1003 2.920431142 1 obs
o1004 2.916896376 1 obs
o1005 2.919115015 1 obs
o1006 2.918728834 1 obs
o1007 2.918596246 1 obs
o1008 2.916238313 1 obs
o1009 2.917017382 1 obs
o1010 2.913098873 1 obs
o1011 2.91401754 1 obs
o1012 2.913098873 1 obs
o1013 2.911266415 1 obs
o1014 2.912568826 1 obs
o1015 2.910350491 1 obs
o1016 2.907078463 1 obs
o1017 2.908782905 1 obs
o1018 2.910222475 1 obs
o1019 2.90799713 1 obs
o1020 2.909561974 1 obs
o1021 2.905904069 1 obs
o1022 2.905250578 1 obs
o1023 2.908782905 1 obs
o1024 2.904329777 1 obs
o1025 2.902246164 1 obs
o1026 2.905250578 1 obs
o1027 2.904062467 1 obs
o1028 2.904062467 1 obs
o1029 2.900932171 1 obs
o1030 2.899357879 1 obs
o1031 2.899357879 1 obs
o1032 2.901841694 1 obs
o1033 2.89910459 1 obs
o1034 2.897662886 1 obs
o1035 2.895688392 1 obs
o1036 2.898176779 1 obs
o1037 2.898053335 1 obs
o1038 2.897662886 1 obs
o1039 2.898053335 1 obs
o1040 2.901332374 1 obs
o1041 2.895946558 1 obs
o1042 2.896211734 1 obs
o1043 2.895565253 1 obs
o1044 2.897004518 1 obs
o1045 2.897134973 1 obs
o1046 2.894779174 1 obs
o1047 2.893865383 1 obs
o1048 2.893472191 1 obs
o1049 2.89086097 1 obs
o1050 2.892814128 1 obs
o1051 2.892951288 1 obs
o1052 2.891381873 1 obs
o1053 2.894390858 1 obs
o1054 2.889549415 1 obs
o1055 2.887451782 1 obs
o1056 2.884835683 1 obs
o1057 2.889951446 1 obs
o1058 2.887186606 1 obs
o1059 2.88536573 1 obs
o1060 2.884700657 1 obs
o1061 2.887716958 1 obs
o1062 2.88692844 1 obs
o1063 2.884700657 1 obs
o1064 2.889951446 1 obs
o1065 2.884968271 1 obs
o1066 2.88823085 1 obs
o1067 2.884189202 1 obs
o1068 2.886665702 1 obs
o1069 2.884449502 1 obs
o1070 2.88536573 1 obs
o1071 2.881956847 1 obs
o1072 2.883000787 1 obs
o1073 2.882217146 1 obs
o1074 2.880773004 1 obs
o1075 2.878947557 1 obs
o1076 2.878947557 1 obs
o1077 2.87959861 1 obs
o1078 2.877503414 1 obs
o1079 2.876594196 1 obs
o1080 2.875545379 1 obs
o1081 2.875012894 1 obs
o1082 2.873843376 1 obs
o1083 2.873719932 1 obs
o1084 2.870829514 1 obs
o1085 2.872143506 1 obs
o1086 2.874503573 1 obs
o1087 2.872668982 1 obs
o1088 2.871096823 1 obs
o1089 2.87292227 1 obs
o1090 2.870699364 1 obs
o1091 2.872794559 1 obs
o1092 2.871096823 1 obs
o1093 2.871361999 1 obs
o1094 2.874108247 1 obs
o1095 2.871361999 1 obs
o1096 2.870964235 1 obs
o1097 2.871229411 1 obs
o1098 2.871483005 1 obs
o1099 2.867171609 1 obs
o1100 2.868213415 1 obs
o1101 2.870699364 1 obs
o1102 2.869129644 1 obs
o1103 2.871361999 1 obs
o1104 2.86652269 1 obs
o1105 2.868608741 1 obs
o1106 2.866908871 1 obs
o1107 2.867564496 1 obs
o1108 2.869259794 1 obs
o1109 2.862590465 1 obs
o1110 2.864943826 1 obs
o1111 2.868741329 1 obs
o1112 2.86638553 1 obs
o1113 2.86363471 1 obs
o1114 2.863381116 1 obs
o1115 2.861544086 1 obs
o1116 2.864036741 1 obs
o1117 2.864818248 1 obs
o1118 2.862990362 1 obs
o1119 2.859971928 1 obs
o1120 2.859323314 1 obs
o1121 2.862990362 1 obs
o1122 2.859583613 1 obs
o1123 2.860627858 1 obs
o1124 2.859971928 1 obs
o1125 2.858281507 1 obs
o1126 2.859065148 1 obs
o1127 2.858671956 1 obs
o1128 2.860244114 1 obs
o1129 2.858930122 1 obs
o1130 2.863502122 1 obs
o1131 2.859583613 1 obs
o1132 2.861285921 1 obs
o1133 2.858671956 1 obs
o1134 2.855516362 1 obs
o1135 2.858016331 1 obs
o1136 2.855132923 1 obs
o1137 2.853298027 1 obs
o1138 2.854865309 1 obs
o1139 2.856574627 1 obs
o1140 2.85460501 1 obs
o1141 2.856439601 1 obs
o1142 2.858281507 1 obs
o1143 2.854084106 1 obs
o1144 2.850686501 1 obs
o1145 2.853688781 1 obs
o1146 2.853953652 1 obs
o1147 2.851470142 1 obs
o1148 2.849363364 1 obs
o1149 2.852126071 1 obs
o1150 2.851332982 1 obs
o1151 2.849763262 1 obs
o1152 2.853163001 1 obs
o1153 2.850151577 1 obs
o1154 2.848458718 1 obs
o1155 2.848458718 1 obs
o1156 2.848458718 1 obs
o1157 2.848984193 1 obs
o1158 2.850942228 1 obs
o1159 2.844935839 1 obs
o1160 2.848984193 1 obs
o1161 2.848595878 1 obs
o1162 2.846103223 1 obs
o1163 2.84675641 1 obs
o1164 2.846493672 1 obs
o1165 2.844140311 1 obs
o1166 2.84349383 1 obs
o1167 2.842568458 1 obs
o1168 2.844668225 1 obs
o1169 2.84231273 1 obs
o1170 2.838901104 1 obs
o1171 2.841268486 1 obs
o1172 2.842701046 1 obs
o1173 2.84074301 1 obs
o1174 2.838782537 1 obs
o1175 2.839561606 1 obs
o1176 2.83916628 1 obs
o1177 2.83759656 1 obs
o1178 2.834324837 1 obs
o1179 2.83655262 1 obs
o1180 2.834980462 1 obs
o1181 2.835899129 1 obs
o1182 2.833806067 1 obs
o1183 2.837064074 1 obs
o1184 2.836296588 1 obs
o1185 2.835234055 1 obs
o1186 2.833538758 1 obs
o1187 2.832494513 1 obs
o1188 2.834980462 1 obs
o1189 2.834592146 1 obs
o1190 2.835771113 1 obs
o1191 2.832624967 1 obs
o1192 2.831182958 1 obs
o1193 2.833806067 1 obs
o1194 2.831443562 1 obs
o1195 2.833538758 1 obs
o1196 2.829355378 1 obs
o1197 2.833150442 1 obs
o1198 2.831710872 1 obs
o1199 2.830399318 1 obs
o1200 2.82779023 1 obs
o1201 2.830134446 1 obs
o1202 2.82765307 1 obs
o1203 2.828960052 1 obs
o1204 2.826874001 1 obs
o1205 2.830003992 1 obs
o1206 2.829218218 1 obs
o1207 2.826348526 1 obs
o1208 2.828185555 1 obs
o1209 2.82779023 1 obs
o1210 2.82779023 1 obs
o1211 2.82857387 1 obs
o1212 2.824127753 1 obs
o1213 2.830264596 1 obs
o1214 2.822688182 1 obs
o1215 2.824127753 1 obs
o1216 2.822688182 1 obs
o1217 2.824913832 1 obs
o1218 2.82176982 1 obs
o1219 2.822032558 1 obs
o1220 2.822688182 1 obs
o1221 2.821502206 1 obs
o1222 2.822816198 1 obs
o1223 2.821639366 1 obs
o1224 2.82189997 1 obs
o1225 2.819025706 1 obs
o1226 2.822155697 1 obs
o1227 2.81954417 1 obs
o1228 2.816270009 1 obs
o1229 2.818235054 1 obs
o1230 2.81850023 1 obs
o1231 2.818627942 1 obs
o1232 2.818890679 1 obs
o1233 2.818095456 1 obs
o1234 2.815751544 1 obs
o1235 2.819025706 1 obs
o1236 2.815616518 1 obs
o1237 2.814702727 1 obs
o1238 2.816016415 1 obs
o1239 2.816270009 1 obs
o1240 2.816141993 1 obs
o1241 2.816921062 1 obs
o1242 2.813395745 1 obs
o1243 2.814442123 1 obs
o1244 2.811684293 1 obs
o1245 2.812600522 1 obs
o1246 2.811684293 1 obs
o1247 2.813268034 1 obs
o1248 2.811951602 1 obs
o1249 2.808940178 1 obs
o1250 2.814958454 1 obs
o1251 2.813395745 1 obs
o1252 2.810512337 1 obs
o1253 2.810256305 1 obs
o1254 2.808424152 1 obs
o1255 2.814044664 1 obs
o1256 2.810384321 1 obs
o1257 2.80357326 1 obs
o1258 2.807372897 1 obs
o1259 2.807498474 1 obs
o1260 2.804489489 1 obs
o1261 2.807242747 1 obs
o1262 2.804619638 1 obs
o1263 2.80384057 1 obs
o1264 2.804619638 1 obs
o1265 2.805021974 1 obs
o1266 2.804886948 1 obs
o1267 2.80646124 1 obs
o1268 2.805021974 1 obs
o1269 2.80646124 1 obs
o1270 2.807372897 1 obs
o1271 2.807372897 1 obs
o1272 2.807372897 1 obs
o1273 2.806196369 1 obs
o1274 2.80646124 1 obs
o1275 2.801482637 1 obs
o1276 2.804359034 1 obs
o1277 2.803440672 1 obs
o1278 2.80646124 1 obs
o1279 2.802924341 1 obs
o1280 2.80633109 1 obs
o1281 2.803315094 1 obs
o1282 2.798873549 1 obs
o1283 2.802001102 1 obs
o1284 2.804489489 1 obs